REMARK  Name = ../refined-set-2016/1c5s/1c5s_pocket.pdb
REMARK  137 active torsions:
REMARK  status: ('A' for Active; 'I' for Inactive)
REMARK    1  A    between atoms: _1  and  _5
REMARK    2  A    between atoms: _5  and  _6
REMARK    3  A    between atoms: _5  and  _8
REMARK    4  A    between atoms: _8  and  _9
REMARK    5  A    between atoms: _12  and  _14
REMARK    6  A    between atoms: _14  and  _15
REMARK    7  A    between atoms: _14  and  _17
REMARK    8  A    between atoms: _20  and  _22
REMARK    9  A    between atoms: _22  and  _23
REMARK   10  A    between atoms: _22  and  _25
REMARK   11  A    between atoms: _27  and  _29
REMARK   12  A    between atoms: _29  and  _30
REMARK   13  A    between atoms: _29  and  _32
REMARK   14  A    between atoms: _32  and  _33
REMARK   15  A    between atoms: _38  and  _40
REMARK   16  A    between atoms: _40  and  _41
REMARK   17  A    between atoms: _40  and  _43
REMARK   18  A    between atoms: _43  and  _44
REMARK   19  A    between atoms: _47  and  _49
REMARK   20  A    between atoms: _49  and  _50
REMARK   21  A    between atoms: _49  and  _52
REMARK   22  A    between atoms: _52  and  _53
REMARK   23  A    between atoms: _56  and  _58
REMARK   24  A    between atoms: _58  and  _59
REMARK   25  A    between atoms: _58  and  _61
REMARK   26  A    between atoms: _61  and  _62
REMARK   27  A    between atoms: _65  and  _67
REMARK   28  A    between atoms: _67  and  _68
REMARK   29  A    between atoms: _67  and  _70
REMARK   30  A    between atoms: _70  and  _71
REMARK   31  A    between atoms: _76  and  _78
REMARK   32  A    between atoms: _78  and  _79
REMARK   33  A    between atoms: _78  and  _81
REMARK   34  A    between atoms: _81  and  _82
REMARK   35  A    between atoms: _87  and  _88
REMARK   36  A    between atoms: _90  and  _92
REMARK   37  A    between atoms: _92  and  _93
REMARK   38  A    between atoms: _92  and  _95
REMARK   39  A    between atoms: _95  and  _96
REMARK   40  A    between atoms: _99  and  _101
REMARK   41  A    between atoms: _101  and  _102
REMARK   42  A    between atoms: _101  and  _104
REMARK   43  A    between atoms: _104  and  _105
REMARK   44  A    between atoms: _110  and  _111
REMARK   45  A    between atoms: _113  and  _115
REMARK   46  A    between atoms: _115  and  _116
REMARK   47  A    between atoms: _119  and  _121
REMARK   48  A    between atoms: _121  and  _122
REMARK   49  A    between atoms: _121  and  _124
REMARK   50  A    between atoms: _124  and  _125
REMARK   51  A    between atoms: _125  and  _126
REMARK   52  A    between atoms: _126  and  _127
REMARK   53  A    between atoms: _127  and  _128
REMARK   54  A    between atoms: _132  and  _134
REMARK   55  A    between atoms: _134  and  _135
REMARK   56  A    between atoms: _134  and  _137
REMARK   57  A    between atoms: _137  and  _138
REMARK   58  A    between atoms: _141  and  _143
REMARK   59  A    between atoms: _143  and  _144
REMARK   60  A    between atoms: _143  and  _146
REMARK   61  A    between atoms: _146  and  _147
REMARK   62  A    between atoms: _149  and  _151
REMARK   63  A    between atoms: _151  and  _152
REMARK   64  A    between atoms: _151  and  _154
REMARK   65  A    between atoms: _154  and  _155
REMARK   66  A    between atoms: _155  and  _265
REMARK   67  A    between atoms: _156  and  _158
REMARK   68  A    between atoms: _158  and  _159
REMARK   69  A    between atoms: _158  and  _161
REMARK   70  A    between atoms: _161  and  _162
REMARK   71  A    between atoms: _162  and  _163
REMARK   72  A    between atoms: _168  and  _170
REMARK   73  A    between atoms: _170  and  _171
REMARK   74  A    between atoms: _173  and  _175
REMARK   75  A    between atoms: _175  and  _176
REMARK   76  A    between atoms: _175  and  _178
REMARK   77  A    between atoms: _178  and  _179
REMARK   78  A    between atoms: _182  and  _184
REMARK   79  A    between atoms: _184  and  _185
REMARK   80  A    between atoms: _184  and  _187
REMARK   81  A    between atoms: _187  and  _188
REMARK   82  A    between atoms: _190  and  _192
REMARK   83  A    between atoms: _192  and  _193
REMARK   84  A    between atoms: _195  and  _197
REMARK   85  A    between atoms: _197  and  _198
REMARK   86  A    between atoms: _200  and  _202
REMARK   87  A    between atoms: _202  and  _203
REMARK   88  A    between atoms: _202  and  _205
REMARK   89  A    between atoms: _205  and  _206
REMARK   90  A    between atoms: _209  and  _211
REMARK   91  A    between atoms: _211  and  _212
REMARK   92  A    between atoms: _211  and  _214
REMARK   93  A    between atoms: _217  and  _219
REMARK   94  A    between atoms: _219  and  _220
REMARK   95  A    between atoms: _219  and  _222
REMARK   96  A    between atoms: _222  and  _223
REMARK   97  A    between atoms: _225  and  _227
REMARK   98  A    between atoms: _227  and  _228
REMARK   99  A    between atoms: _227  and  _230
REMARK  100  A    between atoms: _230  and  _231
REMARK  101  A    between atoms: _241  and  _243
REMARK  102  A    between atoms: _243  and  _244
REMARK  103  A    between atoms: _246  and  _248
REMARK  104  A    between atoms: _248  and  _249
REMARK  105  A    between atoms: _248  and  _251
REMARK  106  A    between atoms: _251  and  _252
REMARK  107  A    between atoms: _254  and  _256
REMARK  108  A    between atoms: _256  and  _257
REMARK  109  A    between atoms: _259  and  _261
REMARK  110  A    between atoms: _261  and  _262
REMARK  111  A    between atoms: _261  and  _264
REMARK  112  A    between atoms: _264  and  _265
REMARK  113  A    between atoms: _266  and  _268
REMARK  114  A    between atoms: _268  and  _269
REMARK  115  A    between atoms: _272  and  _274
REMARK  116  A    between atoms: _274  and  _275
REMARK  117  A    between atoms: _274  and  _277
REMARK  118  A    between atoms: _277  and  _278
REMARK  119  A    between atoms: _278  and  _279
REMARK  120  A    between atoms: _284  and  _286
REMARK  121  A    between atoms: _286  and  _287
REMARK  122  A    between atoms: _286  and  _289
REMARK  123  A    between atoms: _289  and  _290
REMARK  124  A    between atoms: _290  and  _291
REMARK  125  A    between atoms: _291  and  _292
REMARK  126  A    between atoms: _292  and  _293
REMARK  127  A    between atoms: _298  and  _299
REMARK  128  A    between atoms: _304  and  _306
REMARK  129  A    between atoms: _306  and  _307
REMARK  130  A    between atoms: _309  and  _311
REMARK  131  A    between atoms: _311  and  _312
REMARK  132  A    between atoms: _311  and  _314
REMARK  133  A    between atoms: _317  and  _319
REMARK  134  A    between atoms: _319  and  _320
REMARK  135  A    between atoms: _319  and  _322
REMARK  136  A    between atoms: _322  and  _323
REMARK  137  A    between atoms: _328  and  _329
REMARK                            x       y       z     vdW  Elec       q    Type
REMARK                         _______ _______ _______ _____ _____    ______ ____
ROOT
ATOM      1  C   ILE A   1      53.200  14.448  49.986  0.00  0.00    +0.202 C 
ATOM      2  N   VAL A   2      53.057  14.299  51.261  0.00  0.00    -0.301 N 
ATOM      3  H   VAL A   2      52.099  14.194  51.652  0.00  0.00    +0.150 HD
ATOM      4  O   ILE A   1      54.267  14.555  49.412  0.00  0.00    -0.277 OA
ENDROOT
BRANCH   1   5
ATOM      5  CA  ILE A   1      51.910  14.461  49.156  0.00  0.00    +0.013 C 
BRANCH   5   6
ATOM      6  N   ILE A   1      52.060  15.678  48.311  0.00  0.00    +0.387 N 
ATOM      7  H1  ILE A   1      52.148  16.514  48.923  0.00  0.00    -0.089 HD
ATOM      8  H2  ILE A   1      52.912  15.586  47.722  0.00  0.00    -0.089 HD
ATOM      9  H3  ILE A   1      51.224  15.780  47.701  0.00  0.00    -0.089 HD
ENDBRANCH   5   6
BRANCH   5  10
ATOM     10  CB  ILE A   1      51.844  13.138  48.275  0.00  0.00    -0.011 C 
ATOM     11  CG2 ILE A   1      51.850  11.858  49.170  0.00  0.00    -0.002 C 
BRANCH  10  12
ATOM     12  CG1 ILE A   1      50.637  13.054  47.271  0.00  0.00    -0.002 C 
ATOM     13  CD1 ILE A   1      49.282  12.866  47.985  0.00  0.00    -0.000 C 
ENDBRANCH  10  12
ENDBRANCH   5  10
ENDBRANCH   1   5
BRANCH   2  14
ATOM     14  CA  VAL A   2      54.216  14.273  52.184  0.00  0.00    +0.137 C 
BRANCH  14  15
ATOM     15  CB  VAL A   2      53.938  15.247  53.362  0.00  0.00    +0.026 C 
ATOM     16  CG2 VAL A   2      55.155  15.246  54.330  0.00  0.00    +0.002 C 
ATOM     17  CG1 VAL A   2      53.546  16.681  52.845  0.00  0.00    +0.002 C 
ENDBRANCH  14  15
BRANCH  14  18
ATOM     18  C   VAL A   2      54.371  12.849  52.728  0.00  0.00    +0.227 C 
ATOM     19  O   VAL A   2      53.374  12.254  53.089  0.00  0.00    -0.286 OA
ENDBRANCH  14  18
ENDBRANCH   2  14
TORSDOF 7
REMARK  Name = ../refined-set-2016/1c5s/1c5s_pocket.pdb
REMARK  137 active torsions:
REMARK  status: ('A' for Active; 'I' for Inactive)
REMARK    1  A    between atoms: _1  and  _5
REMARK    2  A    between atoms: _5  and  _6
REMARK    3  A    between atoms: _5  and  _8
REMARK    4  A    between atoms: _8  and  _9
REMARK    5  A    between atoms: _12  and  _14
REMARK    6  A    between atoms: _14  and  _15
REMARK    7  A    between atoms: _14  and  _17
REMARK    8  A    between atoms: _20  and  _22
REMARK    9  A    between atoms: _22  and  _23
REMARK   10  A    between atoms: _22  and  _25
REMARK   11  A    between atoms: _27  and  _29
REMARK   12  A    between atoms: _29  and  _30
REMARK   13  A    between atoms: _29  and  _32
REMARK   14  A    between atoms: _32  and  _33
REMARK   15  A    between atoms: _38  and  _40
REMARK   16  A    between atoms: _40  and  _41
REMARK   17  A    between atoms: _40  and  _43
REMARK   18  A    between atoms: _43  and  _44
REMARK   19  A    between atoms: _47  and  _49
REMARK   20  A    between atoms: _49  and  _50
REMARK   21  A    between atoms: _49  and  _52
REMARK   22  A    between atoms: _52  and  _53
REMARK   23  A    between atoms: _56  and  _58
REMARK   24  A    between atoms: _58  and  _59
REMARK   25  A    between atoms: _58  and  _61
REMARK   26  A    between atoms: _61  and  _62
REMARK   27  A    between atoms: _65  and  _67
REMARK   28  A    between atoms: _67  and  _68
REMARK   29  A    between atoms: _67  and  _70
REMARK   30  A    between atoms: _70  and  _71
REMARK   31  A    between atoms: _76  and  _78
REMARK   32  A    between atoms: _78  and  _79
REMARK   33  A    between atoms: _78  and  _81
REMARK   34  A    between atoms: _81  and  _82
REMARK   35  A    between atoms: _87  and  _88
REMARK   36  A    between atoms: _90  and  _92
REMARK   37  A    between atoms: _92  and  _93
REMARK   38  A    between atoms: _92  and  _95
REMARK   39  A    between atoms: _95  and  _96
REMARK   40  A    between atoms: _99  and  _101
REMARK   41  A    between atoms: _101  and  _102
REMARK   42  A    between atoms: _101  and  _104
REMARK   43  A    between atoms: _104  and  _105
REMARK   44  A    between atoms: _110  and  _111
REMARK   45  A    between atoms: _113  and  _115
REMARK   46  A    between atoms: _115  and  _116
REMARK   47  A    between atoms: _119  and  _121
REMARK   48  A    between atoms: _121  and  _122
REMARK   49  A    between atoms: _121  and  _124
REMARK   50  A    between atoms: _124  and  _125
REMARK   51  A    between atoms: _125  and  _126
REMARK   52  A    between atoms: _126  and  _127
REMARK   53  A    between atoms: _127  and  _128
REMARK   54  A    between atoms: _132  and  _134
REMARK   55  A    between atoms: _134  and  _135
REMARK   56  A    between atoms: _134  and  _137
REMARK   57  A    between atoms: _137  and  _138
REMARK   58  A    between atoms: _141  and  _143
REMARK   59  A    between atoms: _143  and  _144
REMARK   60  A    between atoms: _143  and  _146
REMARK   61  A    between atoms: _146  and  _147
REMARK   62  A    between atoms: _149  and  _151
REMARK   63  A    between atoms: _151  and  _152
REMARK   64  A    between atoms: _151  and  _154
REMARK   65  A    between atoms: _154  and  _155
REMARK   66  A    between atoms: _155  and  _265
REMARK   67  A    between atoms: _156  and  _158
REMARK   68  A    between atoms: _158  and  _159
REMARK   69  A    between atoms: _158  and  _161
REMARK   70  A    between atoms: _161  and  _162
REMARK   71  A    between atoms: _162  and  _163
REMARK   72  A    between atoms: _168  and  _170
REMARK   73  A    between atoms: _170  and  _171
REMARK   74  A    between atoms: _173  and  _175
REMARK   75  A    between atoms: _175  and  _176
REMARK   76  A    between atoms: _175  and  _178
REMARK   77  A    between atoms: _178  and  _179
REMARK   78  A    between atoms: _182  and  _184
REMARK   79  A    between atoms: _184  and  _185
REMARK   80  A    between atoms: _184  and  _187
REMARK   81  A    between atoms: _187  and  _188
REMARK   82  A    between atoms: _190  and  _192
REMARK   83  A    between atoms: _192  and  _193
REMARK   84  A    between atoms: _195  and  _197
REMARK   85  A    between atoms: _197  and  _198
REMARK   86  A    between atoms: _200  and  _202
REMARK   87  A    between atoms: _202  and  _203
REMARK   88  A    between atoms: _202  and  _205
REMARK   89  A    between atoms: _205  and  _206
REMARK   90  A    between atoms: _209  and  _211
REMARK   91  A    between atoms: _211  and  _212
REMARK   92  A    between atoms: _211  and  _214
REMARK   93  A    between atoms: _217  and  _219
REMARK   94  A    between atoms: _219  and  _220
REMARK   95  A    between atoms: _219  and  _222
REMARK   96  A    between atoms: _222  and  _223
REMARK   97  A    between atoms: _225  and  _227
REMARK   98  A    between atoms: _227  and  _228
REMARK   99  A    between atoms: _227  and  _230
REMARK  100  A    between atoms: _230  and  _231
REMARK  101  A    between atoms: _241  and  _243
REMARK  102  A    between atoms: _243  and  _244
REMARK  103  A    between atoms: _246  and  _248
REMARK  104  A    between atoms: _248  and  _249
REMARK  105  A    between atoms: _248  and  _251
REMARK  106  A    between atoms: _251  and  _252
REMARK  107  A    between atoms: _254  and  _256
REMARK  108  A    between atoms: _256  and  _257
REMARK  109  A    between atoms: _259  and  _261
REMARK  110  A    between atoms: _261  and  _262
REMARK  111  A    between atoms: _261  and  _264
REMARK  112  A    between atoms: _264  and  _265
REMARK  113  A    between atoms: _266  and  _268
REMARK  114  A    between atoms: _268  and  _269
REMARK  115  A    between atoms: _272  and  _274
REMARK  116  A    between atoms: _274  and  _275
REMARK  117  A    between atoms: _274  and  _277
REMARK  118  A    between atoms: _277  and  _278
REMARK  119  A    between atoms: _278  and  _279
REMARK  120  A    between atoms: _284  and  _286
REMARK  121  A    between atoms: _286  and  _287
REMARK  122  A    between atoms: _286  and  _289
REMARK  123  A    between atoms: _289  and  _290
REMARK  124  A    between atoms: _290  and  _291
REMARK  125  A    between atoms: _291  and  _292
REMARK  126  A    between atoms: _292  and  _293
REMARK  127  A    between atoms: _298  and  _299
REMARK  128  A    between atoms: _304  and  _306
REMARK  129  A    between atoms: _306  and  _307
REMARK  130  A    between atoms: _309  and  _311
REMARK  131  A    between atoms: _311  and  _312
REMARK  132  A    between atoms: _311  and  _314
REMARK  133  A    between atoms: _317  and  _319
REMARK  134  A    between atoms: _319  and  _320
REMARK  135  A    between atoms: _319  and  _322
REMARK  136  A    between atoms: _322  and  _323
REMARK  137  A    between atoms: _328  and  _329
REMARK                            x       y       z     vdW  Elec       q    Type
REMARK                         _______ _______ _______ _____ _____    ______ ____
ROOT
ATOM      1  CA  CYS A   1      44.699  20.779  40.976  0.00  0.00    +0.145 C 
ENDROOT
BRANCH   1   2
ATOM      2  N   CYS A   1      45.563  21.773  40.236  0.00  0.00    -0.238 NA
ATOM      3  H   CYS A   1      45.834  21.571  39.252  0.00  0.00    +0.142 HD
ENDBRANCH   1   2
BRANCH   1   4
ATOM      4  CB  CYS A   1      43.223  21.248  41.051  0.00  0.00    +0.094 C 
ATOM      5  SG  CYS A   1      42.791  22.351  42.438  0.00  0.00    -0.080 S 
ENDBRANCH   1   4
BRANCH   1   6
ATOM      6  C   CYS A   1      44.728  19.422  40.263  0.00  0.00    +0.225 C 
ATOM      7  O   CYS A   1      45.088  19.355  39.098  0.00  0.00    -0.287 OA
ENDBRANCH   1   6
TORSDOF 3
REMARK  Name = ../refined-set-2016/1c5s/1c5s_pocket.pdb
REMARK  137 active torsions:
REMARK  status: ('A' for Active; 'I' for Inactive)
REMARK    1  A    between atoms: _1  and  _5
REMARK    2  A    between atoms: _5  and  _6
REMARK    3  A    between atoms: _5  and  _8
REMARK    4  A    between atoms: _8  and  _9
REMARK    5  A    between atoms: _12  and  _14
REMARK    6  A    between atoms: _14  and  _15
REMARK    7  A    between atoms: _14  and  _17
REMARK    8  A    between atoms: _20  and  _22
REMARK    9  A    between atoms: _22  and  _23
REMARK   10  A    between atoms: _22  and  _25
REMARK   11  A    between atoms: _27  and  _29
REMARK   12  A    between atoms: _29  and  _30
REMARK   13  A    between atoms: _29  and  _32
REMARK   14  A    between atoms: _32  and  _33
REMARK   15  A    between atoms: _38  and  _40
REMARK   16  A    between atoms: _40  and  _41
REMARK   17  A    between atoms: _40  and  _43
REMARK   18  A    between atoms: _43  and  _44
REMARK   19  A    between atoms: _47  and  _49
REMARK   20  A    between atoms: _49  and  _50
REMARK   21  A    between atoms: _49  and  _52
REMARK   22  A    between atoms: _52  and  _53
REMARK   23  A    between atoms: _56  and  _58
REMARK   24  A    between atoms: _58  and  _59
REMARK   25  A    between atoms: _58  and  _61
REMARK   26  A    between atoms: _61  and  _62
REMARK   27  A    between atoms: _65  and  _67
REMARK   28  A    between atoms: _67  and  _68
REMARK   29  A    between atoms: _67  and  _70
REMARK   30  A    between atoms: _70  and  _71
REMARK   31  A    between atoms: _76  and  _78
REMARK   32  A    between atoms: _78  and  _79
REMARK   33  A    between atoms: _78  and  _81
REMARK   34  A    between atoms: _81  and  _82
REMARK   35  A    between atoms: _87  and  _88
REMARK   36  A    between atoms: _90  and  _92
REMARK   37  A    between atoms: _92  and  _93
REMARK   38  A    between atoms: _92  and  _95
REMARK   39  A    between atoms: _95  and  _96
REMARK   40  A    between atoms: _99  and  _101
REMARK   41  A    between atoms: _101  and  _102
REMARK   42  A    between atoms: _101  and  _104
REMARK   43  A    between atoms: _104  and  _105
REMARK   44  A    between atoms: _110  and  _111
REMARK   45  A    between atoms: _113  and  _115
REMARK   46  A    between atoms: _115  and  _116
REMARK   47  A    between atoms: _119  and  _121
REMARK   48  A    between atoms: _121  and  _122
REMARK   49  A    between atoms: _121  and  _124
REMARK   50  A    between atoms: _124  and  _125
REMARK   51  A    between atoms: _125  and  _126
REMARK   52  A    between atoms: _126  and  _127
REMARK   53  A    between atoms: _127  and  _128
REMARK   54  A    between atoms: _132  and  _134
REMARK   55  A    between atoms: _134  and  _135
REMARK   56  A    between atoms: _134  and  _137
REMARK   57  A    between atoms: _137  and  _138
REMARK   58  A    between atoms: _141  and  _143
REMARK   59  A    between atoms: _143  and  _144
REMARK   60  A    between atoms: _143  and  _146
REMARK   61  A    between atoms: _146  and  _147
REMARK   62  A    between atoms: _149  and  _151
REMARK   63  A    between atoms: _151  and  _152
REMARK   64  A    between atoms: _151  and  _154
REMARK   65  A    between atoms: _154  and  _155
REMARK   66  A    between atoms: _155  and  _265
REMARK   67  A    between atoms: _156  and  _158
REMARK   68  A    between atoms: _158  and  _159
REMARK   69  A    between atoms: _158  and  _161
REMARK   70  A    between atoms: _161  and  _162
REMARK   71  A    between atoms: _162  and  _163
REMARK   72  A    between atoms: _168  and  _170
REMARK   73  A    between atoms: _170  and  _171
REMARK   74  A    between atoms: _173  and  _175
REMARK   75  A    between atoms: _175  and  _176
REMARK   76  A    between atoms: _175  and  _178
REMARK   77  A    between atoms: _178  and  _179
REMARK   78  A    between atoms: _182  and  _184
REMARK   79  A    between atoms: _184  and  _185
REMARK   80  A    between atoms: _184  and  _187
REMARK   81  A    between atoms: _187  and  _188
REMARK   82  A    between atoms: _190  and  _192
REMARK   83  A    between atoms: _192  and  _193
REMARK   84  A    between atoms: _195  and  _197
REMARK   85  A    between atoms: _197  and  _198
REMARK   86  A    between atoms: _200  and  _202
REMARK   87  A    between atoms: _202  and  _203
REMARK   88  A    between atoms: _202  and  _205
REMARK   89  A    between atoms: _205  and  _206
REMARK   90  A    between atoms: _209  and  _211
REMARK   91  A    between atoms: _211  and  _212
REMARK   92  A    between atoms: _211  and  _214
REMARK   93  A    between atoms: _217  and  _219
REMARK   94  A    between atoms: _219  and  _220
REMARK   95  A    between atoms: _219  and  _222
REMARK   96  A    between atoms: _222  and  _223
REMARK   97  A    between atoms: _225  and  _227
REMARK   98  A    between atoms: _227  and  _228
REMARK   99  A    between atoms: _227  and  _230
REMARK  100  A    between atoms: _230  and  _231
REMARK  101  A    between atoms: _241  and  _243
REMARK  102  A    between atoms: _243  and  _244
REMARK  103  A    between atoms: _246  and  _248
REMARK  104  A    between atoms: _248  and  _249
REMARK  105  A    between atoms: _248  and  _251
REMARK  106  A    between atoms: _251  and  _252
REMARK  107  A    between atoms: _254  and  _256
REMARK  108  A    between atoms: _256  and  _257
REMARK  109  A    between atoms: _259  and  _261
REMARK  110  A    between atoms: _261  and  _262
REMARK  111  A    between atoms: _261  and  _264
REMARK  112  A    between atoms: _264  and  _265
REMARK  113  A    between atoms: _266  and  _268
REMARK  114  A    between atoms: _268  and  _269
REMARK  115  A    between atoms: _272  and  _274
REMARK  116  A    between atoms: _274  and  _275
REMARK  117  A    between atoms: _274  and  _277
REMARK  118  A    between atoms: _277  and  _278
REMARK  119  A    between atoms: _278  and  _279
REMARK  120  A    between atoms: _284  and  _286
REMARK  121  A    between atoms: _286  and  _287
REMARK  122  A    between atoms: _286  and  _289
REMARK  123  A    between atoms: _289  and  _290
REMARK  124  A    between atoms: _290  and  _291
REMARK  125  A    between atoms: _291  and  _292
REMARK  126  A    between atoms: _292  and  _293
REMARK  127  A    between atoms: _298  and  _299
REMARK  128  A    between atoms: _304  and  _306
REMARK  129  A    between atoms: _306  and  _307
REMARK  130  A    between atoms: _309  and  _311
REMARK  131  A    between atoms: _311  and  _312
REMARK  132  A    between atoms: _311  and  _314
REMARK  133  A    between atoms: _317  and  _319
REMARK  134  A    between atoms: _319  and  _320
REMARK  135  A    between atoms: _319  and  _322
REMARK  136  A    between atoms: _322  and  _323
REMARK  137  A    between atoms: _328  and  _329
REMARK                            x       y       z     vdW  Elec       q    Type
REMARK                         _______ _______ _______ _____ _____    ______ ____
ROOT
ATOM      1  CB  HIS A   1      38.167  24.609  46.912  0.00  0.00    +0.072 C 
ENDROOT
BRANCH   1   2
ATOM      2  CG  HIS A   1      39.272  23.577  47.130  0.00  0.00    +0.082 A 
ATOM      3  ND1 HIS A   1      39.146  22.384  47.625  0.00  0.00    -0.227 NA
ATOM      4  CE1 HIS A   1      40.296  21.795  47.674  0.00  0.00    +0.199 A 
ATOM      5  NE2 HIS A   1      41.250  22.572  47.220  0.00  0.00    -0.221 NA
ATOM      6  CD2 HIS A   1      40.631  23.688  46.874  0.00  0.00    +0.115 A 
ENDBRANCH   1   2
BRANCH   1   7
ATOM      7  CA  HIS A   1      37.535  24.793  45.475  0.00  0.00    +0.139 C 
BRANCH   7   8
ATOM      8  N   HIS A   1      36.612  23.664  45.182  0.00  0.00    -0.239 NA
ATOM      9  H   HIS A   1      36.640  22.784  45.735  0.00  0.00    +0.142 HD
ENDBRANCH   7   8
BRANCH   7  10
ATOM     10  C   HIS A   1      38.594  24.913  44.369  0.00  0.00    +0.224 C 
ATOM     11  O   HIS A   1      39.379  25.850  44.398  0.00  0.00    -0.287 OA
ENDBRANCH   7  10
ENDBRANCH   1   7
TORSDOF 4
REMARK  Name = ../refined-set-2016/1c5s/1c5s_pocket.pdb
REMARK  137 active torsions:
REMARK  status: ('A' for Active; 'I' for Inactive)
REMARK    1  A    between atoms: _1  and  _5
REMARK    2  A    between atoms: _5  and  _6
REMARK    3  A    between atoms: _5  and  _8
REMARK    4  A    between atoms: _8  and  _9
REMARK    5  A    between atoms: _12  and  _14
REMARK    6  A    between atoms: _14  and  _15
REMARK    7  A    between atoms: _14  and  _17
REMARK    8  A    between atoms: _20  and  _22
REMARK    9  A    between atoms: _22  and  _23
REMARK   10  A    between atoms: _22  and  _25
REMARK   11  A    between atoms: _27  and  _29
REMARK   12  A    between atoms: _29  and  _30
REMARK   13  A    between atoms: _29  and  _32
REMARK   14  A    between atoms: _32  and  _33
REMARK   15  A    between atoms: _38  and  _40
REMARK   16  A    between atoms: _40  and  _41
REMARK   17  A    between atoms: _40  and  _43
REMARK   18  A    between atoms: _43  and  _44
REMARK   19  A    between atoms: _47  and  _49
REMARK   20  A    between atoms: _49  and  _50
REMARK   21  A    between atoms: _49  and  _52
REMARK   22  A    between atoms: _52  and  _53
REMARK   23  A    between atoms: _56  and  _58
REMARK   24  A    between atoms: _58  and  _59
REMARK   25  A    between atoms: _58  and  _61
REMARK   26  A    between atoms: _61  and  _62
REMARK   27  A    between atoms: _65  and  _67
REMARK   28  A    between atoms: _67  and  _68
REMARK   29  A    between atoms: _67  and  _70
REMARK   30  A    between atoms: _70  and  _71
REMARK   31  A    between atoms: _76  and  _78
REMARK   32  A    between atoms: _78  and  _79
REMARK   33  A    between atoms: _78  and  _81
REMARK   34  A    between atoms: _81  and  _82
REMARK   35  A    between atoms: _87  and  _88
REMARK   36  A    between atoms: _90  and  _92
REMARK   37  A    between atoms: _92  and  _93
REMARK   38  A    between atoms: _92  and  _95
REMARK   39  A    between atoms: _95  and  _96
REMARK   40  A    between atoms: _99  and  _101
REMARK   41  A    between atoms: _101  and  _102
REMARK   42  A    between atoms: _101  and  _104
REMARK   43  A    between atoms: _104  and  _105
REMARK   44  A    between atoms: _110  and  _111
REMARK   45  A    between atoms: _113  and  _115
REMARK   46  A    between atoms: _115  and  _116
REMARK   47  A    between atoms: _119  and  _121
REMARK   48  A    between atoms: _121  and  _122
REMARK   49  A    between atoms: _121  and  _124
REMARK   50  A    between atoms: _124  and  _125
REMARK   51  A    between atoms: _125  and  _126
REMARK   52  A    between atoms: _126  and  _127
REMARK   53  A    between atoms: _127  and  _128
REMARK   54  A    between atoms: _132  and  _134
REMARK   55  A    between atoms: _134  and  _135
REMARK   56  A    between atoms: _134  and  _137
REMARK   57  A    between atoms: _137  and  _138
REMARK   58  A    between atoms: _141  and  _143
REMARK   59  A    between atoms: _143  and  _144
REMARK   60  A    between atoms: _143  and  _146
REMARK   61  A    between atoms: _146  and  _147
REMARK   62  A    between atoms: _149  and  _151
REMARK   63  A    between atoms: _151  and  _152
REMARK   64  A    between atoms: _151  and  _154
REMARK   65  A    between atoms: _154  and  _155
REMARK   66  A    between atoms: _155  and  _265
REMARK   67  A    between atoms: _156  and  _158
REMARK   68  A    between atoms: _158  and  _159
REMARK   69  A    between atoms: _158  and  _161
REMARK   70  A    between atoms: _161  and  _162
REMARK   71  A    between atoms: _162  and  _163
REMARK   72  A    between atoms: _168  and  _170
REMARK   73  A    between atoms: _170  and  _171
REMARK   74  A    between atoms: _173  and  _175
REMARK   75  A    between atoms: _175  and  _176
REMARK   76  A    between atoms: _175  and  _178
REMARK   77  A    between atoms: _178  and  _179
REMARK   78  A    between atoms: _182  and  _184
REMARK   79  A    between atoms: _184  and  _185
REMARK   80  A    between atoms: _184  and  _187
REMARK   81  A    between atoms: _187  and  _188
REMARK   82  A    between atoms: _190  and  _192
REMARK   83  A    between atoms: _192  and  _193
REMARK   84  A    between atoms: _195  and  _197
REMARK   85  A    between atoms: _197  and  _198
REMARK   86  A    between atoms: _200  and  _202
REMARK   87  A    between atoms: _202  and  _203
REMARK   88  A    between atoms: _202  and  _205
REMARK   89  A    between atoms: _205  and  _206
REMARK   90  A    between atoms: _209  and  _211
REMARK   91  A    between atoms: _211  and  _212
REMARK   92  A    between atoms: _211  and  _214
REMARK   93  A    between atoms: _217  and  _219
REMARK   94  A    between atoms: _219  and  _220
REMARK   95  A    between atoms: _219  and  _222
REMARK   96  A    between atoms: _222  and  _223
REMARK   97  A    between atoms: _225  and  _227
REMARK   98  A    between atoms: _227  and  _228
REMARK   99  A    between atoms: _227  and  _230
REMARK  100  A    between atoms: _230  and  _231
REMARK  101  A    between atoms: _241  and  _243
REMARK  102  A    between atoms: _243  and  _244
REMARK  103  A    between atoms: _246  and  _248
REMARK  104  A    between atoms: _248  and  _249
REMARK  105  A    between atoms: _248  and  _251
REMARK  106  A    between atoms: _251  and  _252
REMARK  107  A    between atoms: _254  and  _256
REMARK  108  A    between atoms: _256  and  _257
REMARK  109  A    between atoms: _259  and  _261
REMARK  110  A    between atoms: _261  and  _262
REMARK  111  A    between atoms: _261  and  _264
REMARK  112  A    between atoms: _264  and  _265
REMARK  113  A    between atoms: _266  and  _268
REMARK  114  A    between atoms: _268  and  _269
REMARK  115  A    between atoms: _272  and  _274
REMARK  116  A    between atoms: _274  and  _275
REMARK  117  A    between atoms: _274  and  _277
REMARK  118  A    between atoms: _277  and  _278
REMARK  119  A    between atoms: _278  and  _279
REMARK  120  A    between atoms: _284  and  _286
REMARK  121  A    between atoms: _286  and  _287
REMARK  122  A    between atoms: _286  and  _289
REMARK  123  A    between atoms: _289  and  _290
REMARK  124  A    between atoms: _290  and  _291
REMARK  125  A    between atoms: _291  and  _292
REMARK  126  A    between atoms: _292  and  _293
REMARK  127  A    between atoms: _298  and  _299
REMARK  128  A    between atoms: _304  and  _306
REMARK  129  A    between atoms: _306  and  _307
REMARK  130  A    between atoms: _309  and  _311
REMARK  131  A    between atoms: _311  and  _312
REMARK  132  A    between atoms: _311  and  _314
REMARK  133  A    between atoms: _317  and  _319
REMARK  134  A    between atoms: _319  and  _320
REMARK  135  A    between atoms: _319  and  _322
REMARK  136  A    between atoms: _322  and  _323
REMARK  137  A    between atoms: _328  and  _329
REMARK                            x       y       z     vdW  Elec       q    Type
REMARK                         _______ _______ _______ _____ _____    ______ ____
ROOT
ATOM      1  CA  LEU A   1      34.156  23.680  52.234  0.00  0.00    +0.133 C 
ENDROOT
BRANCH   1   2
ATOM      2  N   LEU A   1      33.678  24.622  53.266  0.00  0.00    -0.239 NA
ATOM      3  H   LEU A   1      33.220  25.494  52.932  0.00  0.00    +0.142 HD
ENDBRANCH   1   2
BRANCH   1   4
ATOM      4  C   LEU A   1      33.227  22.457  52.256  0.00  0.00    +0.224 C 
ATOM      5  O   LEU A   1      33.592  21.369  51.822  0.00  0.00    -0.287 OA
ENDBRANCH   1   4
BRANCH   1   6
ATOM      6  CB  LEU A   1      35.644  23.196  52.458  0.00  0.00    +0.025 C 
BRANCH   6   7
ATOM      7  CG  LEU A   1      36.732  24.245  52.057  0.00  0.00    +0.002 C 
ATOM      8  CD2 LEU A   1      38.007  23.477  51.504  0.00  0.00    +0.000 C 
ATOM      9  CD1 LEU A   1      36.267  25.223  50.974  0.00  0.00    +0.000 C 
ENDBRANCH   6   7
ENDBRANCH   1   6
TORSDOF 4
REMARK  Name = ../refined-set-2016/1c5s/1c5s_pocket.pdb
REMARK  137 active torsions:
REMARK  status: ('A' for Active; 'I' for Inactive)
REMARK    1  A    between atoms: _1  and  _5
REMARK    2  A    between atoms: _5  and  _6
REMARK    3  A    between atoms: _5  and  _8
REMARK    4  A    between atoms: _8  and  _9
REMARK    5  A    between atoms: _12  and  _14
REMARK    6  A    between atoms: _14  and  _15
REMARK    7  A    between atoms: _14  and  _17
REMARK    8  A    between atoms: _20  and  _22
REMARK    9  A    between atoms: _22  and  _23
REMARK   10  A    between atoms: _22  and  _25
REMARK   11  A    between atoms: _27  and  _29
REMARK   12  A    between atoms: _29  and  _30
REMARK   13  A    between atoms: _29  and  _32
REMARK   14  A    between atoms: _32  and  _33
REMARK   15  A    between atoms: _38  and  _40
REMARK   16  A    between atoms: _40  and  _41
REMARK   17  A    between atoms: _40  and  _43
REMARK   18  A    between atoms: _43  and  _44
REMARK   19  A    between atoms: _47  and  _49
REMARK   20  A    between atoms: _49  and  _50
REMARK   21  A    between atoms: _49  and  _52
REMARK   22  A    between atoms: _52  and  _53
REMARK   23  A    between atoms: _56  and  _58
REMARK   24  A    between atoms: _58  and  _59
REMARK   25  A    between atoms: _58  and  _61
REMARK   26  A    between atoms: _61  and  _62
REMARK   27  A    between atoms: _65  and  _67
REMARK   28  A    between atoms: _67  and  _68
REMARK   29  A    between atoms: _67  and  _70
REMARK   30  A    between atoms: _70  and  _71
REMARK   31  A    between atoms: _76  and  _78
REMARK   32  A    between atoms: _78  and  _79
REMARK   33  A    between atoms: _78  and  _81
REMARK   34  A    between atoms: _81  and  _82
REMARK   35  A    between atoms: _87  and  _88
REMARK   36  A    between atoms: _90  and  _92
REMARK   37  A    between atoms: _92  and  _93
REMARK   38  A    between atoms: _92  and  _95
REMARK   39  A    between atoms: _95  and  _96
REMARK   40  A    between atoms: _99  and  _101
REMARK   41  A    between atoms: _101  and  _102
REMARK   42  A    between atoms: _101  and  _104
REMARK   43  A    between atoms: _104  and  _105
REMARK   44  A    between atoms: _110  and  _111
REMARK   45  A    between atoms: _113  and  _115
REMARK   46  A    between atoms: _115  and  _116
REMARK   47  A    between atoms: _119  and  _121
REMARK   48  A    between atoms: _121  and  _122
REMARK   49  A    between atoms: _121  and  _124
REMARK   50  A    between atoms: _124  and  _125
REMARK   51  A    between atoms: _125  and  _126
REMARK   52  A    between atoms: _126  and  _127
REMARK   53  A    between atoms: _127  and  _128
REMARK   54  A    between atoms: _132  and  _134
REMARK   55  A    between atoms: _134  and  _135
REMARK   56  A    between atoms: _134  and  _137
REMARK   57  A    between atoms: _137  and  _138
REMARK   58  A    between atoms: _141  and  _143
REMARK   59  A    between atoms: _143  and  _144
REMARK   60  A    between atoms: _143  and  _146
REMARK   61  A    between atoms: _146  and  _147
REMARK   62  A    between atoms: _149  and  _151
REMARK   63  A    between atoms: _151  and  _152
REMARK   64  A    between atoms: _151  and  _154
REMARK   65  A    between atoms: _154  and  _155
REMARK   66  A    between atoms: _155  and  _265
REMARK   67  A    between atoms: _156  and  _158
REMARK   68  A    between atoms: _158  and  _159
REMARK   69  A    between atoms: _158  and  _161
REMARK   70  A    between atoms: _161  and  _162
REMARK   71  A    between atoms: _162  and  _163
REMARK   72  A    between atoms: _168  and  _170
REMARK   73  A    between atoms: _170  and  _171
REMARK   74  A    between atoms: _173  and  _175
REMARK   75  A    between atoms: _175  and  _176
REMARK   76  A    between atoms: _175  and  _178
REMARK   77  A    between atoms: _178  and  _179
REMARK   78  A    between atoms: _182  and  _184
REMARK   79  A    between atoms: _184  and  _185
REMARK   80  A    between atoms: _184  and  _187
REMARK   81  A    between atoms: _187  and  _188
REMARK   82  A    between atoms: _190  and  _192
REMARK   83  A    between atoms: _192  and  _193
REMARK   84  A    between atoms: _195  and  _197
REMARK   85  A    between atoms: _197  and  _198
REMARK   86  A    between atoms: _200  and  _202
REMARK   87  A    between atoms: _202  and  _203
REMARK   88  A    between atoms: _202  and  _205
REMARK   89  A    between atoms: _205  and  _206
REMARK   90  A    between atoms: _209  and  _211
REMARK   91  A    between atoms: _211  and  _212
REMARK   92  A    between atoms: _211  and  _214
REMARK   93  A    between atoms: _217  and  _219
REMARK   94  A    between atoms: _219  and  _220
REMARK   95  A    between atoms: _219  and  _222
REMARK   96  A    between atoms: _222  and  _223
REMARK   97  A    between atoms: _225  and  _227
REMARK   98  A    between atoms: _227  and  _228
REMARK   99  A    between atoms: _227  and  _230
REMARK  100  A    between atoms: _230  and  _231
REMARK  101  A    between atoms: _241  and  _243
REMARK  102  A    between atoms: _243  and  _244
REMARK  103  A    between atoms: _246  and  _248
REMARK  104  A    between atoms: _248  and  _249
REMARK  105  A    between atoms: _248  and  _251
REMARK  106  A    between atoms: _251  and  _252
REMARK  107  A    between atoms: _254  and  _256
REMARK  108  A    between atoms: _256  and  _257
REMARK  109  A    between atoms: _259  and  _261
REMARK  110  A    between atoms: _261  and  _262
REMARK  111  A    between atoms: _261  and  _264
REMARK  112  A    between atoms: _264  and  _265
REMARK  113  A    between atoms: _266  and  _268
REMARK  114  A    between atoms: _268  and  _269
REMARK  115  A    between atoms: _272  and  _274
REMARK  116  A    between atoms: _274  and  _275
REMARK  117  A    between atoms: _274  and  _277
REMARK  118  A    between atoms: _277  and  _278
REMARK  119  A    between atoms: _278  and  _279
REMARK  120  A    between atoms: _284  and  _286
REMARK  121  A    between atoms: _286  and  _287
REMARK  122  A    between atoms: _286  and  _289
REMARK  123  A    between atoms: _289  and  _290
REMARK  124  A    between atoms: _290  and  _291
REMARK  125  A    between atoms: _291  and  _292
REMARK  126  A    between atoms: _292  and  _293
REMARK  127  A    between atoms: _298  and  _299
REMARK  128  A    between atoms: _304  and  _306
REMARK  129  A    between atoms: _306  and  _307
REMARK  130  A    between atoms: _309  and  _311
REMARK  131  A    between atoms: _311  and  _312
REMARK  132  A    between atoms: _311  and  _314
REMARK  133  A    between atoms: _317  and  _319
REMARK  134  A    between atoms: _319  and  _320
REMARK  135  A    between atoms: _319  and  _322
REMARK  136  A    between atoms: _322  and  _323
REMARK  137  A    between atoms: _328  and  _329
REMARK                            x       y       z     vdW  Elec       q    Type
REMARK                         _______ _______ _______ _____ _____    ______ ____
ROOT
ATOM      1  CA  ASP A   1      33.465  20.355  47.965  0.00  0.00    +0.144 C 
ENDROOT
BRANCH   1   2
ATOM      2  N   ASP A   1      32.314  19.941  48.808  0.00  0.00    -0.239 NA
ATOM      3  H   ASP A   1      32.486  19.420  49.691  0.00  0.00    +0.142 HD
ENDBRANCH   1   2
BRANCH   1   4
ATOM      4  C   ASP A   1      33.705  19.350  46.834  0.00  0.00    +0.225 C 
ATOM      5  O   ASP A   1      34.615  18.545  46.873  0.00  0.00    -0.287 OA
ENDBRANCH   1   4
BRANCH   1   6
ATOM      6  CB  ASP A   1      34.709  20.477  48.881  0.00  0.00    +0.139 C 
BRANCH   6   7
ATOM      7  CG  ASP A   1      35.928  21.098  48.162  0.00  0.00    +0.367 C 
ATOM      8  OD2 ASP A   1      37.000  20.956  48.723  0.00  0.00    -0.246 OA
ATOM      9  OD1 ASP A   1      35.746  21.681  47.112  0.00  0.00    -0.246 OA
ENDBRANCH   6   7
ENDBRANCH   1   6
TORSDOF 4
REMARK  Name = ../refined-set-2016/1c5s/1c5s_pocket.pdb
REMARK  137 active torsions:
REMARK  status: ('A' for Active; 'I' for Inactive)
REMARK    1  A    between atoms: _1  and  _5
REMARK    2  A    between atoms: _5  and  _6
REMARK    3  A    between atoms: _5  and  _8
REMARK    4  A    between atoms: _8  and  _9
REMARK    5  A    between atoms: _12  and  _14
REMARK    6  A    between atoms: _14  and  _15
REMARK    7  A    between atoms: _14  and  _17
REMARK    8  A    between atoms: _20  and  _22
REMARK    9  A    between atoms: _22  and  _23
REMARK   10  A    between atoms: _22  and  _25
REMARK   11  A    between atoms: _27  and  _29
REMARK   12  A    between atoms: _29  and  _30
REMARK   13  A    between atoms: _29  and  _32
REMARK   14  A    between atoms: _32  and  _33
REMARK   15  A    between atoms: _38  and  _40
REMARK   16  A    between atoms: _40  and  _41
REMARK   17  A    between atoms: _40  and  _43
REMARK   18  A    between atoms: _43  and  _44
REMARK   19  A    between atoms: _47  and  _49
REMARK   20  A    between atoms: _49  and  _50
REMARK   21  A    between atoms: _49  and  _52
REMARK   22  A    between atoms: _52  and  _53
REMARK   23  A    between atoms: _56  and  _58
REMARK   24  A    between atoms: _58  and  _59
REMARK   25  A    between atoms: _58  and  _61
REMARK   26  A    between atoms: _61  and  _62
REMARK   27  A    between atoms: _65  and  _67
REMARK   28  A    between atoms: _67  and  _68
REMARK   29  A    between atoms: _67  and  _70
REMARK   30  A    between atoms: _70  and  _71
REMARK   31  A    between atoms: _76  and  _78
REMARK   32  A    between atoms: _78  and  _79
REMARK   33  A    between atoms: _78  and  _81
REMARK   34  A    between atoms: _81  and  _82
REMARK   35  A    between atoms: _87  and  _88
REMARK   36  A    between atoms: _90  and  _92
REMARK   37  A    between atoms: _92  and  _93
REMARK   38  A    between atoms: _92  and  _95
REMARK   39  A    between atoms: _95  and  _96
REMARK   40  A    between atoms: _99  and  _101
REMARK   41  A    between atoms: _101  and  _102
REMARK   42  A    between atoms: _101  and  _104
REMARK   43  A    between atoms: _104  and  _105
REMARK   44  A    between atoms: _110  and  _111
REMARK   45  A    between atoms: _113  and  _115
REMARK   46  A    between atoms: _115  and  _116
REMARK   47  A    between atoms: _119  and  _121
REMARK   48  A    between atoms: _121  and  _122
REMARK   49  A    between atoms: _121  and  _124
REMARK   50  A    between atoms: _124  and  _125
REMARK   51  A    between atoms: _125  and  _126
REMARK   52  A    between atoms: _126  and  _127
REMARK   53  A    between atoms: _127  and  _128
REMARK   54  A    between atoms: _132  and  _134
REMARK   55  A    between atoms: _134  and  _135
REMARK   56  A    between atoms: _134  and  _137
REMARK   57  A    between atoms: _137  and  _138
REMARK   58  A    between atoms: _141  and  _143
REMARK   59  A    between atoms: _143  and  _144
REMARK   60  A    between atoms: _143  and  _146
REMARK   61  A    between atoms: _146  and  _147
REMARK   62  A    between atoms: _149  and  _151
REMARK   63  A    between atoms: _151  and  _152
REMARK   64  A    between atoms: _151  and  _154
REMARK   65  A    between atoms: _154  and  _155
REMARK   66  A    between atoms: _155  and  _265
REMARK   67  A    between atoms: _156  and  _158
REMARK   68  A    between atoms: _158  and  _159
REMARK   69  A    between atoms: _158  and  _161
REMARK   70  A    between atoms: _161  and  _162
REMARK   71  A    between atoms: _162  and  _163
REMARK   72  A    between atoms: _168  and  _170
REMARK   73  A    between atoms: _170  and  _171
REMARK   74  A    between atoms: _173  and  _175
REMARK   75  A    between atoms: _175  and  _176
REMARK   76  A    between atoms: _175  and  _178
REMARK   77  A    between atoms: _178  and  _179
REMARK   78  A    between atoms: _182  and  _184
REMARK   79  A    between atoms: _184  and  _185
REMARK   80  A    between atoms: _184  and  _187
REMARK   81  A    between atoms: _187  and  _188
REMARK   82  A    between atoms: _190  and  _192
REMARK   83  A    between atoms: _192  and  _193
REMARK   84  A    between atoms: _195  and  _197
REMARK   85  A    between atoms: _197  and  _198
REMARK   86  A    between atoms: _200  and  _202
REMARK   87  A    between atoms: _202  and  _203
REMARK   88  A    between atoms: _202  and  _205
REMARK   89  A    between atoms: _205  and  _206
REMARK   90  A    between atoms: _209  and  _211
REMARK   91  A    between atoms: _211  and  _212
REMARK   92  A    between atoms: _211  and  _214
REMARK   93  A    between atoms: _217  and  _219
REMARK   94  A    between atoms: _219  and  _220
REMARK   95  A    between atoms: _219  and  _222
REMARK   96  A    between atoms: _222  and  _223
REMARK   97  A    between atoms: _225  and  _227
REMARK   98  A    between atoms: _227  and  _228
REMARK   99  A    between atoms: _227  and  _230
REMARK  100  A    between atoms: _230  and  _231
REMARK  101  A    between atoms: _241  and  _243
REMARK  102  A    between atoms: _243  and  _244
REMARK  103  A    between atoms: _246  and  _248
REMARK  104  A    between atoms: _248  and  _249
REMARK  105  A    between atoms: _248  and  _251
REMARK  106  A    between atoms: _251  and  _252
REMARK  107  A    between atoms: _254  and  _256
REMARK  108  A    between atoms: _256  and  _257
REMARK  109  A    between atoms: _259  and  _261
REMARK  110  A    between atoms: _261  and  _262
REMARK  111  A    between atoms: _261  and  _264
REMARK  112  A    between atoms: _264  and  _265
REMARK  113  A    between atoms: _266  and  _268
REMARK  114  A    between atoms: _268  and  _269
REMARK  115  A    between atoms: _272  and  _274
REMARK  116  A    between atoms: _274  and  _275
REMARK  117  A    between atoms: _274  and  _277
REMARK  118  A    between atoms: _277  and  _278
REMARK  119  A    between atoms: _278  and  _279
REMARK  120  A    between atoms: _284  and  _286
REMARK  121  A    between atoms: _286  and  _287
REMARK  122  A    between atoms: _286  and  _289
REMARK  123  A    between atoms: _289  and  _290
REMARK  124  A    between atoms: _290  and  _291
REMARK  125  A    between atoms: _291  and  _292
REMARK  126  A    between atoms: _292  and  _293
REMARK  127  A    between atoms: _298  and  _299
REMARK  128  A    between atoms: _304  and  _306
REMARK  129  A    between atoms: _306  and  _307
REMARK  130  A    between atoms: _309  and  _311
REMARK  131  A    between atoms: _311  and  _312
REMARK  132  A    between atoms: _311  and  _314
REMARK  133  A    between atoms: _317  and  _319
REMARK  134  A    between atoms: _319  and  _320
REMARK  135  A    between atoms: _319  and  _322
REMARK  136  A    between atoms: _322  and  _323
REMARK  137  A    between atoms: _328  and  _329
REMARK                            x       y       z     vdW  Elec       q    Type
REMARK                         _______ _______ _______ _____ _____    ______ ____
ROOT
ATOM      1  CA  ILE A   1      45.910   9.050  47.579  0.00  0.00    +0.133 C 
ENDROOT
BRANCH   1   2
ATOM      2  N   ILE A   1      46.063   7.589  47.813  0.00  0.00    -0.239 NA
ATOM      3  H   ILE A   1      46.924   7.261  48.296  0.00  0.00    +0.142 HD
ENDBRANCH   1   2
BRANCH   1   4
ATOM      4  CB  ILE A   1      45.958   9.771  48.966  0.00  0.00    +0.023 C 
ATOM      5  CG2 ILE A   1      45.663  11.282  48.769  0.00  0.00    +0.002 C 
BRANCH   4   6
ATOM      6  CG1 ILE A   1      44.865   9.109  49.907  0.00  0.00    +0.002 C 
ATOM      7  CD1 ILE A   1      44.962   9.624  51.314  0.00  0.00    +0.000 C 
ENDBRANCH   4   6
ENDBRANCH   1   4
BRANCH   1   8
ATOM      8  C   ILE A   1      47.107   9.433  46.693  0.00  0.00    +0.224 C 
ATOM      9  O   ILE A   1      48.217   8.989  46.955  0.00  0.00    -0.287 OA
ENDBRANCH   1   8
TORSDOF 4
REMARK  Name = ../refined-set-2016/1c5s/1c5s_pocket.pdb
REMARK  137 active torsions:
REMARK  status: ('A' for Active; 'I' for Inactive)
REMARK    1  A    between atoms: _1  and  _5
REMARK    2  A    between atoms: _5  and  _6
REMARK    3  A    between atoms: _5  and  _8
REMARK    4  A    between atoms: _8  and  _9
REMARK    5  A    between atoms: _12  and  _14
REMARK    6  A    between atoms: _14  and  _15
REMARK    7  A    between atoms: _14  and  _17
REMARK    8  A    between atoms: _20  and  _22
REMARK    9  A    between atoms: _22  and  _23
REMARK   10  A    between atoms: _22  and  _25
REMARK   11  A    between atoms: _27  and  _29
REMARK   12  A    between atoms: _29  and  _30
REMARK   13  A    between atoms: _29  and  _32
REMARK   14  A    between atoms: _32  and  _33
REMARK   15  A    between atoms: _38  and  _40
REMARK   16  A    between atoms: _40  and  _41
REMARK   17  A    between atoms: _40  and  _43
REMARK   18  A    between atoms: _43  and  _44
REMARK   19  A    between atoms: _47  and  _49
REMARK   20  A    between atoms: _49  and  _50
REMARK   21  A    between atoms: _49  and  _52
REMARK   22  A    between atoms: _52  and  _53
REMARK   23  A    between atoms: _56  and  _58
REMARK   24  A    between atoms: _58  and  _59
REMARK   25  A    between atoms: _58  and  _61
REMARK   26  A    between atoms: _61  and  _62
REMARK   27  A    between atoms: _65  and  _67
REMARK   28  A    between atoms: _67  and  _68
REMARK   29  A    between atoms: _67  and  _70
REMARK   30  A    between atoms: _70  and  _71
REMARK   31  A    between atoms: _76  and  _78
REMARK   32  A    between atoms: _78  and  _79
REMARK   33  A    between atoms: _78  and  _81
REMARK   34  A    between atoms: _81  and  _82
REMARK   35  A    between atoms: _87  and  _88
REMARK   36  A    between atoms: _90  and  _92
REMARK   37  A    between atoms: _92  and  _93
REMARK   38  A    between atoms: _92  and  _95
REMARK   39  A    between atoms: _95  and  _96
REMARK   40  A    between atoms: _99  and  _101
REMARK   41  A    between atoms: _101  and  _102
REMARK   42  A    between atoms: _101  and  _104
REMARK   43  A    between atoms: _104  and  _105
REMARK   44  A    between atoms: _110  and  _111
REMARK   45  A    between atoms: _113  and  _115
REMARK   46  A    between atoms: _115  and  _116
REMARK   47  A    between atoms: _119  and  _121
REMARK   48  A    between atoms: _121  and  _122
REMARK   49  A    between atoms: _121  and  _124
REMARK   50  A    between atoms: _124  and  _125
REMARK   51  A    between atoms: _125  and  _126
REMARK   52  A    between atoms: _126  and  _127
REMARK   53  A    between atoms: _127  and  _128
REMARK   54  A    between atoms: _132  and  _134
REMARK   55  A    between atoms: _134  and  _135
REMARK   56  A    between atoms: _134  and  _137
REMARK   57  A    between atoms: _137  and  _138
REMARK   58  A    between atoms: _141  and  _143
REMARK   59  A    between atoms: _143  and  _144
REMARK   60  A    between atoms: _143  and  _146
REMARK   61  A    between atoms: _146  and  _147
REMARK   62  A    between atoms: _149  and  _151
REMARK   63  A    between atoms: _151  and  _152
REMARK   64  A    between atoms: _151  and  _154
REMARK   65  A    between atoms: _154  and  _155
REMARK   66  A    between atoms: _155  and  _265
REMARK   67  A    between atoms: _156  and  _158
REMARK   68  A    between atoms: _158  and  _159
REMARK   69  A    between atoms: _158  and  _161
REMARK   70  A    between atoms: _161  and  _162
REMARK   71  A    between atoms: _162  and  _163
REMARK   72  A    between atoms: _168  and  _170
REMARK   73  A    between atoms: _170  and  _171
REMARK   74  A    between atoms: _173  and  _175
REMARK   75  A    between atoms: _175  and  _176
REMARK   76  A    between atoms: _175  and  _178
REMARK   77  A    between atoms: _178  and  _179
REMARK   78  A    between atoms: _182  and  _184
REMARK   79  A    between atoms: _184  and  _185
REMARK   80  A    between atoms: _184  and  _187
REMARK   81  A    between atoms: _187  and  _188
REMARK   82  A    between atoms: _190  and  _192
REMARK   83  A    between atoms: _192  and  _193
REMARK   84  A    between atoms: _195  and  _197
REMARK   85  A    between atoms: _197  and  _198
REMARK   86  A    between atoms: _200  and  _202
REMARK   87  A    between atoms: _202  and  _203
REMARK   88  A    between atoms: _202  and  _205
REMARK   89  A    between atoms: _205  and  _206
REMARK   90  A    between atoms: _209  and  _211
REMARK   91  A    between atoms: _211  and  _212
REMARK   92  A    between atoms: _211  and  _214
REMARK   93  A    between atoms: _217  and  _219
REMARK   94  A    between atoms: _219  and  _220
REMARK   95  A    between atoms: _219  and  _222
REMARK   96  A    between atoms: _222  and  _223
REMARK   97  A    between atoms: _225  and  _227
REMARK   98  A    between atoms: _227  and  _228
REMARK   99  A    between atoms: _227  and  _230
REMARK  100  A    between atoms: _230  and  _231
REMARK  101  A    between atoms: _241  and  _243
REMARK  102  A    between atoms: _243  and  _244
REMARK  103  A    between atoms: _246  and  _248
REMARK  104  A    between atoms: _248  and  _249
REMARK  105  A    between atoms: _248  and  _251
REMARK  106  A    between atoms: _251  and  _252
REMARK  107  A    between atoms: _254  and  _256
REMARK  108  A    between atoms: _256  and  _257
REMARK  109  A    between atoms: _259  and  _261
REMARK  110  A    between atoms: _261  and  _262
REMARK  111  A    between atoms: _261  and  _264
REMARK  112  A    between atoms: _264  and  _265
REMARK  113  A    between atoms: _266  and  _268
REMARK  114  A    between atoms: _268  and  _269
REMARK  115  A    between atoms: _272  and  _274
REMARK  116  A    between atoms: _274  and  _275
REMARK  117  A    between atoms: _274  and  _277
REMARK  118  A    between atoms: _277  and  _278
REMARK  119  A    between atoms: _278  and  _279
REMARK  120  A    between atoms: _284  and  _286
REMARK  121  A    between atoms: _286  and  _287
REMARK  122  A    between atoms: _286  and  _289
REMARK  123  A    between atoms: _289  and  _290
REMARK  124  A    between atoms: _290  and  _291
REMARK  125  A    between atoms: _291  and  _292
REMARK  126  A    between atoms: _292  and  _293
REMARK  127  A    between atoms: _298  and  _299
REMARK  128  A    between atoms: _304  and  _306
REMARK  129  A    between atoms: _306  and  _307
REMARK  130  A    between atoms: _309  and  _311
REMARK  131  A    between atoms: _311  and  _312
REMARK  132  A    between atoms: _311  and  _314
REMARK  133  A    between atoms: _317  and  _319
REMARK  134  A    between atoms: _319  and  _320
REMARK  135  A    between atoms: _319  and  _322
REMARK  136  A    between atoms: _322  and  _323
REMARK  137  A    between atoms: _328  and  _329
REMARK                            x       y       z     vdW  Elec       q    Type
REMARK                         _______ _______ _______ _____ _____    ______ ____
ROOT
ATOM      1  CB  ASN A   1      53.617  21.034  48.939  0.00  0.00    +0.110 C 
ENDROOT
BRANCH   1   2
ATOM      2  CG  ASN A   1      54.806  21.537  49.771  0.00  0.00    +0.221 C 
ATOM      3  ND2 ASN A   1      54.592  22.429  50.693  0.00  0.00    -0.329 N 
ATOM      4 HD21 ASN A   1      55.384  22.787  51.264  0.00  0.00    +0.145 HD
ATOM      5 HD22 ASN A   1      53.629  22.784  50.860  0.00  0.00    +0.145 HD
ATOM      6  OD1 ASN A   1      55.943  21.140  49.598  0.00  0.00    -0.275 OA
ENDBRANCH   1   2
BRANCH   1   7
ATOM      7  CA  ASN A   1      53.978  19.855  47.980  0.00  0.00    +0.142 C 
BRANCH   7   8
ATOM      8  N   ASN A   1      52.780  19.626  47.138  0.00  0.00    -0.239 NA
ATOM      9  H   ASN A   1      51.985  20.293  47.204  0.00  0.00    +0.142 HD
ENDBRANCH   7   8
BRANCH   7  10
ATOM     10  C   ASN A   1      54.369  18.590  48.734  0.00  0.00    +0.225 C 
ATOM     11  O   ASN A   1      53.474  17.842  49.153  0.00  0.00    -0.287 OA
ENDBRANCH   7  10
ENDBRANCH   1   7
TORSDOF 4
REMARK  Name = ../refined-set-2016/1c5s/1c5s_pocket.pdb
REMARK  137 active torsions:
REMARK  status: ('A' for Active; 'I' for Inactive)
REMARK    1  A    between atoms: _1  and  _5
REMARK    2  A    between atoms: _5  and  _6
REMARK    3  A    between atoms: _5  and  _8
REMARK    4  A    between atoms: _8  and  _9
REMARK    5  A    between atoms: _12  and  _14
REMARK    6  A    between atoms: _14  and  _15
REMARK    7  A    between atoms: _14  and  _17
REMARK    8  A    between atoms: _20  and  _22
REMARK    9  A    between atoms: _22  and  _23
REMARK   10  A    between atoms: _22  and  _25
REMARK   11  A    between atoms: _27  and  _29
REMARK   12  A    between atoms: _29  and  _30
REMARK   13  A    between atoms: _29  and  _32
REMARK   14  A    between atoms: _32  and  _33
REMARK   15  A    between atoms: _38  and  _40
REMARK   16  A    between atoms: _40  and  _41
REMARK   17  A    between atoms: _40  and  _43
REMARK   18  A    between atoms: _43  and  _44
REMARK   19  A    between atoms: _47  and  _49
REMARK   20  A    between atoms: _49  and  _50
REMARK   21  A    between atoms: _49  and  _52
REMARK   22  A    between atoms: _52  and  _53
REMARK   23  A    between atoms: _56  and  _58
REMARK   24  A    between atoms: _58  and  _59
REMARK   25  A    between atoms: _58  and  _61
REMARK   26  A    between atoms: _61  and  _62
REMARK   27  A    between atoms: _65  and  _67
REMARK   28  A    between atoms: _67  and  _68
REMARK   29  A    between atoms: _67  and  _70
REMARK   30  A    between atoms: _70  and  _71
REMARK   31  A    between atoms: _76  and  _78
REMARK   32  A    between atoms: _78  and  _79
REMARK   33  A    between atoms: _78  and  _81
REMARK   34  A    between atoms: _81  and  _82
REMARK   35  A    between atoms: _87  and  _88
REMARK   36  A    between atoms: _90  and  _92
REMARK   37  A    between atoms: _92  and  _93
REMARK   38  A    between atoms: _92  and  _95
REMARK   39  A    between atoms: _95  and  _96
REMARK   40  A    between atoms: _99  and  _101
REMARK   41  A    between atoms: _101  and  _102
REMARK   42  A    between atoms: _101  and  _104
REMARK   43  A    between atoms: _104  and  _105
REMARK   44  A    between atoms: _110  and  _111
REMARK   45  A    between atoms: _113  and  _115
REMARK   46  A    between atoms: _115  and  _116
REMARK   47  A    between atoms: _119  and  _121
REMARK   48  A    between atoms: _121  and  _122
REMARK   49  A    between atoms: _121  and  _124
REMARK   50  A    between atoms: _124  and  _125
REMARK   51  A    between atoms: _125  and  _126
REMARK   52  A    between atoms: _126  and  _127
REMARK   53  A    between atoms: _127  and  _128
REMARK   54  A    between atoms: _132  and  _134
REMARK   55  A    between atoms: _134  and  _135
REMARK   56  A    between atoms: _134  and  _137
REMARK   57  A    between atoms: _137  and  _138
REMARK   58  A    between atoms: _141  and  _143
REMARK   59  A    between atoms: _143  and  _144
REMARK   60  A    between atoms: _143  and  _146
REMARK   61  A    between atoms: _146  and  _147
REMARK   62  A    between atoms: _149  and  _151
REMARK   63  A    between atoms: _151  and  _152
REMARK   64  A    between atoms: _151  and  _154
REMARK   65  A    between atoms: _154  and  _155
REMARK   66  A    between atoms: _155  and  _265
REMARK   67  A    between atoms: _156  and  _158
REMARK   68  A    between atoms: _158  and  _159
REMARK   69  A    between atoms: _158  and  _161
REMARK   70  A    between atoms: _161  and  _162
REMARK   71  A    between atoms: _162  and  _163
REMARK   72  A    between atoms: _168  and  _170
REMARK   73  A    between atoms: _170  and  _171
REMARK   74  A    between atoms: _173  and  _175
REMARK   75  A    between atoms: _175  and  _176
REMARK   76  A    between atoms: _175  and  _178
REMARK   77  A    between atoms: _178  and  _179
REMARK   78  A    between atoms: _182  and  _184
REMARK   79  A    between atoms: _184  and  _185
REMARK   80  A    between atoms: _184  and  _187
REMARK   81  A    between atoms: _187  and  _188
REMARK   82  A    between atoms: _190  and  _192
REMARK   83  A    between atoms: _192  and  _193
REMARK   84  A    between atoms: _195  and  _197
REMARK   85  A    between atoms: _197  and  _198
REMARK   86  A    between atoms: _200  and  _202
REMARK   87  A    between atoms: _202  and  _203
REMARK   88  A    between atoms: _202  and  _205
REMARK   89  A    between atoms: _205  and  _206
REMARK   90  A    between atoms: _209  and  _211
REMARK   91  A    between atoms: _211  and  _212
REMARK   92  A    between atoms: _211  and  _214
REMARK   93  A    between atoms: _217  and  _219
REMARK   94  A    between atoms: _219  and  _220
REMARK   95  A    between atoms: _219  and  _222
REMARK   96  A    between atoms: _222  and  _223
REMARK   97  A    between atoms: _225  and  _227
REMARK   98  A    between atoms: _227  and  _228
REMARK   99  A    between atoms: _227  and  _230
REMARK  100  A    between atoms: _230  and  _231
REMARK  101  A    between atoms: _241  and  _243
REMARK  102  A    between atoms: _243  and  _244
REMARK  103  A    between atoms: _246  and  _248
REMARK  104  A    between atoms: _248  and  _249
REMARK  105  A    between atoms: _248  and  _251
REMARK  106  A    between atoms: _251  and  _252
REMARK  107  A    between atoms: _254  and  _256
REMARK  108  A    between atoms: _256  and  _257
REMARK  109  A    between atoms: _259  and  _261
REMARK  110  A    between atoms: _261  and  _262
REMARK  111  A    between atoms: _261  and  _264
REMARK  112  A    between atoms: _264  and  _265
REMARK  113  A    between atoms: _266  and  _268
REMARK  114  A    between atoms: _268  and  _269
REMARK  115  A    between atoms: _272  and  _274
REMARK  116  A    between atoms: _274  and  _275
REMARK  117  A    between atoms: _274  and  _277
REMARK  118  A    between atoms: _277  and  _278
REMARK  119  A    between atoms: _278  and  _279
REMARK  120  A    between atoms: _284  and  _286
REMARK  121  A    between atoms: _286  and  _287
REMARK  122  A    between atoms: _286  and  _289
REMARK  123  A    between atoms: _289  and  _290
REMARK  124  A    between atoms: _290  and  _291
REMARK  125  A    between atoms: _291  and  _292
REMARK  126  A    between atoms: _292  and  _293
REMARK  127  A    between atoms: _298  and  _299
REMARK  128  A    between atoms: _304  and  _306
REMARK  129  A    between atoms: _306  and  _307
REMARK  130  A    between atoms: _309  and  _311
REMARK  131  A    between atoms: _311  and  _312
REMARK  132  A    between atoms: _311  and  _314
REMARK  133  A    between atoms: _317  and  _319
REMARK  134  A    between atoms: _319  and  _320
REMARK  135  A    between atoms: _319  and  _322
REMARK  136  A    between atoms: _322  and  _323
REMARK  137  A    between atoms: _328  and  _329
REMARK                            x       y       z     vdW  Elec       q    Type
REMARK                         _______ _______ _______ _____ _____    ______ ____
ROOT
ATOM      1  CG  TYR A   1      55.150  22.292  44.493  0.00  0.00    -0.020 A 
ATOM      2  CD2 TYR A   1      55.464  23.381  45.256  0.00  0.00    -0.001 A 
ATOM      3  CE2 TYR A   1      54.504  23.972  46.047  0.00  0.00    +0.036 A 
ATOM      4  CZ  TYR A   1      53.224  23.481  46.087  0.00  0.00    +0.134 A 
ATOM      5  CE1 TYR A   1      52.917  22.386  45.319  0.00  0.00    +0.036 A 
ATOM      6  CD1 TYR A   1      53.870  21.797  44.529  0.00  0.00    -0.001 A 
ENDROOT
BRANCH   4   7
ATOM      7  OH  TYR A   1      52.263  24.079  46.884  0.00  0.00    -0.506 OA
ATOM      8  HH  TYR A   1      51.406  23.593  46.786  0.00  0.00    +0.292 HD
ENDBRANCH   4   7
BRANCH   1   9
ATOM      9  CB  TYR A   1      56.182  21.618  43.605  0.00  0.00    +0.051 C 
BRANCH   9  10
ATOM     10  CA  TYR A   1      56.841  20.522  44.384  0.00  0.00    +0.137 C 
BRANCH  10  11
ATOM     11  N   TYR A   1      57.901  21.096  45.235  0.00  0.00    -0.239 NA
ATOM     12  H   TYR A   1      58.587  21.775  44.848  0.00  0.00    +0.142 HD
ENDBRANCH  10  11
BRANCH  10  13
ATOM     13  C   TYR A   1      57.523  19.542  43.445  0.00  0.00    +0.224 C 
ATOM     14  O   TYR A   1      58.451  19.898  42.731  0.00  0.00    -0.287 OA
ENDBRANCH  10  13
ENDBRANCH   9  10
ENDBRANCH   1   9
TORSDOF 5
REMARK  Name = ../refined-set-2016/1c5s/1c5s_pocket.pdb
REMARK  137 active torsions:
REMARK  status: ('A' for Active; 'I' for Inactive)
REMARK    1  A    between atoms: _1  and  _5
REMARK    2  A    between atoms: _5  and  _6
REMARK    3  A    between atoms: _5  and  _8
REMARK    4  A    between atoms: _8  and  _9
REMARK    5  A    between atoms: _12  and  _14
REMARK    6  A    between atoms: _14  and  _15
REMARK    7  A    between atoms: _14  and  _17
REMARK    8  A    between atoms: _20  and  _22
REMARK    9  A    between atoms: _22  and  _23
REMARK   10  A    between atoms: _22  and  _25
REMARK   11  A    between atoms: _27  and  _29
REMARK   12  A    between atoms: _29  and  _30
REMARK   13  A    between atoms: _29  and  _32
REMARK   14  A    between atoms: _32  and  _33
REMARK   15  A    between atoms: _38  and  _40
REMARK   16  A    between atoms: _40  and  _41
REMARK   17  A    between atoms: _40  and  _43
REMARK   18  A    between atoms: _43  and  _44
REMARK   19  A    between atoms: _47  and  _49
REMARK   20  A    between atoms: _49  and  _50
REMARK   21  A    between atoms: _49  and  _52
REMARK   22  A    between atoms: _52  and  _53
REMARK   23  A    between atoms: _56  and  _58
REMARK   24  A    between atoms: _58  and  _59
REMARK   25  A    between atoms: _58  and  _61
REMARK   26  A    between atoms: _61  and  _62
REMARK   27  A    between atoms: _65  and  _67
REMARK   28  A    between atoms: _67  and  _68
REMARK   29  A    between atoms: _67  and  _70
REMARK   30  A    between atoms: _70  and  _71
REMARK   31  A    between atoms: _76  and  _78
REMARK   32  A    between atoms: _78  and  _79
REMARK   33  A    between atoms: _78  and  _81
REMARK   34  A    between atoms: _81  and  _82
REMARK   35  A    between atoms: _87  and  _88
REMARK   36  A    between atoms: _90  and  _92
REMARK   37  A    between atoms: _92  and  _93
REMARK   38  A    between atoms: _92  and  _95
REMARK   39  A    between atoms: _95  and  _96
REMARK   40  A    between atoms: _99  and  _101
REMARK   41  A    between atoms: _101  and  _102
REMARK   42  A    between atoms: _101  and  _104
REMARK   43  A    between atoms: _104  and  _105
REMARK   44  A    between atoms: _110  and  _111
REMARK   45  A    between atoms: _113  and  _115
REMARK   46  A    between atoms: _115  and  _116
REMARK   47  A    between atoms: _119  and  _121
REMARK   48  A    between atoms: _121  and  _122
REMARK   49  A    between atoms: _121  and  _124
REMARK   50  A    between atoms: _124  and  _125
REMARK   51  A    between atoms: _125  and  _126
REMARK   52  A    between atoms: _126  and  _127
REMARK   53  A    between atoms: _127  and  _128
REMARK   54  A    between atoms: _132  and  _134
REMARK   55  A    between atoms: _134  and  _135
REMARK   56  A    between atoms: _134  and  _137
REMARK   57  A    between atoms: _137  and  _138
REMARK   58  A    between atoms: _141  and  _143
REMARK   59  A    between atoms: _143  and  _144
REMARK   60  A    between atoms: _143  and  _146
REMARK   61  A    between atoms: _146  and  _147
REMARK   62  A    between atoms: _149  and  _151
REMARK   63  A    between atoms: _151  and  _152
REMARK   64  A    between atoms: _151  and  _154
REMARK   65  A    between atoms: _154  and  _155
REMARK   66  A    between atoms: _155  and  _265
REMARK   67  A    between atoms: _156  and  _158
REMARK   68  A    between atoms: _158  and  _159
REMARK   69  A    between atoms: _158  and  _161
REMARK   70  A    between atoms: _161  and  _162
REMARK   71  A    between atoms: _162  and  _163
REMARK   72  A    between atoms: _168  and  _170
REMARK   73  A    between atoms: _170  and  _171
REMARK   74  A    between atoms: _173  and  _175
REMARK   75  A    between atoms: _175  and  _176
REMARK   76  A    between atoms: _175  and  _178
REMARK   77  A    between atoms: _178  and  _179
REMARK   78  A    between atoms: _182  and  _184
REMARK   79  A    between atoms: _184  and  _185
REMARK   80  A    between atoms: _184  and  _187
REMARK   81  A    between atoms: _187  and  _188
REMARK   82  A    between atoms: _190  and  _192
REMARK   83  A    between atoms: _192  and  _193
REMARK   84  A    between atoms: _195  and  _197
REMARK   85  A    between atoms: _197  and  _198
REMARK   86  A    between atoms: _200  and  _202
REMARK   87  A    between atoms: _202  and  _203
REMARK   88  A    between atoms: _202  and  _205
REMARK   89  A    between atoms: _205  and  _206
REMARK   90  A    between atoms: _209  and  _211
REMARK   91  A    between atoms: _211  and  _212
REMARK   92  A    between atoms: _211  and  _214
REMARK   93  A    between atoms: _217  and  _219
REMARK   94  A    between atoms: _219  and  _220
REMARK   95  A    between atoms: _219  and  _222
REMARK   96  A    between atoms: _222  and  _223
REMARK   97  A    between atoms: _225  and  _227
REMARK   98  A    between atoms: _227  and  _228
REMARK   99  A    between atoms: _227  and  _230
REMARK  100  A    between atoms: _230  and  _231
REMARK  101  A    between atoms: _241  and  _243
REMARK  102  A    between atoms: _243  and  _244
REMARK  103  A    between atoms: _246  and  _248
REMARK  104  A    between atoms: _248  and  _249
REMARK  105  A    between atoms: _248  and  _251
REMARK  106  A    between atoms: _251  and  _252
REMARK  107  A    between atoms: _254  and  _256
REMARK  108  A    between atoms: _256  and  _257
REMARK  109  A    between atoms: _259  and  _261
REMARK  110  A    between atoms: _261  and  _262
REMARK  111  A    between atoms: _261  and  _264
REMARK  112  A    between atoms: _264  and  _265
REMARK  113  A    between atoms: _266  and  _268
REMARK  114  A    between atoms: _268  and  _269
REMARK  115  A    between atoms: _272  and  _274
REMARK  116  A    between atoms: _274  and  _275
REMARK  117  A    between atoms: _274  and  _277
REMARK  118  A    between atoms: _277  and  _278
REMARK  119  A    between atoms: _278  and  _279
REMARK  120  A    between atoms: _284  and  _286
REMARK  121  A    between atoms: _286  and  _287
REMARK  122  A    between atoms: _286  and  _289
REMARK  123  A    between atoms: _289  and  _290
REMARK  124  A    between atoms: _290  and  _291
REMARK  125  A    between atoms: _291  and  _292
REMARK  126  A    between atoms: _292  and  _293
REMARK  127  A    between atoms: _298  and  _299
REMARK  128  A    between atoms: _304  and  _306
REMARK  129  A    between atoms: _306  and  _307
REMARK  130  A    between atoms: _309  and  _311
REMARK  131  A    between atoms: _311  and  _312
REMARK  132  A    between atoms: _311  and  _314
REMARK  133  A    between atoms: _317  and  _319
REMARK  134  A    between atoms: _319  and  _320
REMARK  135  A    between atoms: _319  and  _322
REMARK  136  A    between atoms: _322  and  _323
REMARK  137  A    between atoms: _328  and  _329
REMARK                            x       y       z     vdW  Elec       q    Type
REMARK                         _______ _______ _______ _____ _____    ______ ____
ROOT
ATOM      1  CA  LEU A   1      50.340   7.441  49.620  0.00  0.00    +0.133 C 
ENDROOT
BRANCH   1   2
ATOM      2  N   LEU A   1      50.389   7.637  48.139  0.00  0.00    -0.239 NA
ATOM      3  H   LEU A   1      49.520   7.507  47.582  0.00  0.00    +0.142 HD
ENDBRANCH   1   2
BRANCH   1   4
ATOM      4  C   LEU A   1      49.229   6.486  49.987  0.00  0.00    +0.224 C 
ATOM      5  O   LEU A   1      48.128   6.632  49.492  0.00  0.00    -0.287 OA
ENDBRANCH   1   4
BRANCH   1   6
ATOM      6  CB  LEU A   1      50.072   8.786  50.292  0.00  0.00    +0.025 C 
BRANCH   6   7
ATOM      7  CG  LEU A   1      49.749   8.711  51.809  0.00  0.00    +0.002 C 
ATOM      8  CD2 LEU A   1      50.985   8.255  52.596  0.00  0.00    +0.000 C 
ATOM      9  CD1 LEU A   1      49.351  10.125  52.286  0.00  0.00    +0.000 C 
ENDBRANCH   6   7
ENDBRANCH   1   6
TORSDOF 4
REMARK  Name = ../refined-set-2016/1c5s/1c5s_pocket.pdb
REMARK  137 active torsions:
REMARK  status: ('A' for Active; 'I' for Inactive)
REMARK    1  A    between atoms: _1  and  _5
REMARK    2  A    between atoms: _5  and  _6
REMARK    3  A    between atoms: _5  and  _8
REMARK    4  A    between atoms: _8  and  _9
REMARK    5  A    between atoms: _12  and  _14
REMARK    6  A    between atoms: _14  and  _15
REMARK    7  A    between atoms: _14  and  _17
REMARK    8  A    between atoms: _20  and  _22
REMARK    9  A    between atoms: _22  and  _23
REMARK   10  A    between atoms: _22  and  _25
REMARK   11  A    between atoms: _27  and  _29
REMARK   12  A    between atoms: _29  and  _30
REMARK   13  A    between atoms: _29  and  _32
REMARK   14  A    between atoms: _32  and  _33
REMARK   15  A    between atoms: _38  and  _40
REMARK   16  A    between atoms: _40  and  _41
REMARK   17  A    between atoms: _40  and  _43
REMARK   18  A    between atoms: _43  and  _44
REMARK   19  A    between atoms: _47  and  _49
REMARK   20  A    between atoms: _49  and  _50
REMARK   21  A    between atoms: _49  and  _52
REMARK   22  A    between atoms: _52  and  _53
REMARK   23  A    between atoms: _56  and  _58
REMARK   24  A    between atoms: _58  and  _59
REMARK   25  A    between atoms: _58  and  _61
REMARK   26  A    between atoms: _61  and  _62
REMARK   27  A    between atoms: _65  and  _67
REMARK   28  A    between atoms: _67  and  _68
REMARK   29  A    between atoms: _67  and  _70
REMARK   30  A    between atoms: _70  and  _71
REMARK   31  A    between atoms: _76  and  _78
REMARK   32  A    between atoms: _78  and  _79
REMARK   33  A    between atoms: _78  and  _81
REMARK   34  A    between atoms: _81  and  _82
REMARK   35  A    between atoms: _87  and  _88
REMARK   36  A    between atoms: _90  and  _92
REMARK   37  A    between atoms: _92  and  _93
REMARK   38  A    between atoms: _92  and  _95
REMARK   39  A    between atoms: _95  and  _96
REMARK   40  A    between atoms: _99  and  _101
REMARK   41  A    between atoms: _101  and  _102
REMARK   42  A    between atoms: _101  and  _104
REMARK   43  A    between atoms: _104  and  _105
REMARK   44  A    between atoms: _110  and  _111
REMARK   45  A    between atoms: _113  and  _115
REMARK   46  A    between atoms: _115  and  _116
REMARK   47  A    between atoms: _119  and  _121
REMARK   48  A    between atoms: _121  and  _122
REMARK   49  A    between atoms: _121  and  _124
REMARK   50  A    between atoms: _124  and  _125
REMARK   51  A    between atoms: _125  and  _126
REMARK   52  A    between atoms: _126  and  _127
REMARK   53  A    between atoms: _127  and  _128
REMARK   54  A    between atoms: _132  and  _134
REMARK   55  A    between atoms: _134  and  _135
REMARK   56  A    between atoms: _134  and  _137
REMARK   57  A    between atoms: _137  and  _138
REMARK   58  A    between atoms: _141  and  _143
REMARK   59  A    between atoms: _143  and  _144
REMARK   60  A    between atoms: _143  and  _146
REMARK   61  A    between atoms: _146  and  _147
REMARK   62  A    between atoms: _149  and  _151
REMARK   63  A    between atoms: _151  and  _152
REMARK   64  A    between atoms: _151  and  _154
REMARK   65  A    between atoms: _154  and  _155
REMARK   66  A    between atoms: _155  and  _265
REMARK   67  A    between atoms: _156  and  _158
REMARK   68  A    between atoms: _158  and  _159
REMARK   69  A    between atoms: _158  and  _161
REMARK   70  A    between atoms: _161  and  _162
REMARK   71  A    between atoms: _162  and  _163
REMARK   72  A    between atoms: _168  and  _170
REMARK   73  A    between atoms: _170  and  _171
REMARK   74  A    between atoms: _173  and  _175
REMARK   75  A    between atoms: _175  and  _176
REMARK   76  A    between atoms: _175  and  _178
REMARK   77  A    between atoms: _178  and  _179
REMARK   78  A    between atoms: _182  and  _184
REMARK   79  A    between atoms: _184  and  _185
REMARK   80  A    between atoms: _184  and  _187
REMARK   81  A    between atoms: _187  and  _188
REMARK   82  A    between atoms: _190  and  _192
REMARK   83  A    between atoms: _192  and  _193
REMARK   84  A    between atoms: _195  and  _197
REMARK   85  A    between atoms: _197  and  _198
REMARK   86  A    between atoms: _200  and  _202
REMARK   87  A    between atoms: _202  and  _203
REMARK   88  A    between atoms: _202  and  _205
REMARK   89  A    between atoms: _205  and  _206
REMARK   90  A    between atoms: _209  and  _211
REMARK   91  A    between atoms: _211  and  _212
REMARK   92  A    between atoms: _211  and  _214
REMARK   93  A    between atoms: _217  and  _219
REMARK   94  A    between atoms: _219  and  _220
REMARK   95  A    between atoms: _219  and  _222
REMARK   96  A    between atoms: _222  and  _223
REMARK   97  A    between atoms: _225  and  _227
REMARK   98  A    between atoms: _227  and  _228
REMARK   99  A    between atoms: _227  and  _230
REMARK  100  A    between atoms: _230  and  _231
REMARK  101  A    between atoms: _241  and  _243
REMARK  102  A    between atoms: _243  and  _244
REMARK  103  A    between atoms: _246  and  _248
REMARK  104  A    between atoms: _248  and  _249
REMARK  105  A    between atoms: _248  and  _251
REMARK  106  A    between atoms: _251  and  _252
REMARK  107  A    between atoms: _254  and  _256
REMARK  108  A    between atoms: _256  and  _257
REMARK  109  A    between atoms: _259  and  _261
REMARK  110  A    between atoms: _261  and  _262
REMARK  111  A    between atoms: _261  and  _264
REMARK  112  A    between atoms: _264  and  _265
REMARK  113  A    between atoms: _266  and  _268
REMARK  114  A    between atoms: _268  and  _269
REMARK  115  A    between atoms: _272  and  _274
REMARK  116  A    between atoms: _274  and  _275
REMARK  117  A    between atoms: _274  and  _277
REMARK  118  A    between atoms: _277  and  _278
REMARK  119  A    between atoms: _278  and  _279
REMARK  120  A    between atoms: _284  and  _286
REMARK  121  A    between atoms: _286  and  _287
REMARK  122  A    between atoms: _286  and  _289
REMARK  123  A    between atoms: _289  and  _290
REMARK  124  A    between atoms: _290  and  _291
REMARK  125  A    between atoms: _291  and  _292
REMARK  126  A    between atoms: _292  and  _293
REMARK  127  A    between atoms: _298  and  _299
REMARK  128  A    between atoms: _304  and  _306
REMARK  129  A    between atoms: _306  and  _307
REMARK  130  A    between atoms: _309  and  _311
REMARK  131  A    between atoms: _311  and  _312
REMARK  132  A    between atoms: _311  and  _314
REMARK  133  A    between atoms: _317  and  _319
REMARK  134  A    between atoms: _319  and  _320
REMARK  135  A    between atoms: _319  and  _322
REMARK  136  A    between atoms: _322  and  _323
REMARK  137  A    between atoms: _328  and  _329
REMARK                            x       y       z     vdW  Elec       q    Type
REMARK                         _______ _______ _______ _____ _____    ______ ____
ROOT
ATOM      1  CG  TYR A   1      39.803  19.086  61.689  0.00  0.00    -0.020 A 
ATOM      2  CD2 TYR A   1      40.617  20.184  61.497  0.00  0.00    -0.001 A 
ATOM      3  CE2 TYR A   1      41.806  20.050  60.833  0.00  0.00    +0.036 A 
ATOM      4  CZ  TYR A   1      42.201  18.819  60.348  0.00  0.00    +0.134 A 
ATOM      5  CE1 TYR A   1      41.394  17.733  60.545  0.00  0.00    +0.036 A 
ATOM      6  CD1 TYR A   1      40.202  17.858  61.211  0.00  0.00    -0.001 A 
ENDROOT
BRANCH   4   7
ATOM      7  OH  TYR A   1      43.388  18.712  59.656  0.00  0.00    -0.506 OA
ATOM      8  HH  TYR A   1      43.524  17.771  59.379  0.00  0.00    +0.292 HD
ENDBRANCH   4   7
BRANCH   1   9
ATOM      9  CB  TYR A   1      38.439  19.261  62.388  0.00  0.00    +0.051 C 
BRANCH   9  10
ATOM     10  CA  TYR A   1      38.539  19.426  63.880  0.00  0.00    +0.137 C 
BRANCH  10  11
ATOM     11  N   TYR A   1      39.159  18.193  64.438  0.00  0.00    -0.239 NA
ATOM     12  H   TYR A   1      38.646  17.290  64.388  0.00  0.00    +0.142 HD
ENDBRANCH  10  11
BRANCH  10  13
ATOM     13  C   TYR A   1      37.127  19.744  64.448  0.00  0.00    +0.224 C 
ATOM     14  O   TYR A   1      36.118  19.562  63.792  0.00  0.00    -0.287 OA
ENDBRANCH  10  13
ENDBRANCH   9  10
ENDBRANCH   1   9
TORSDOF 5
REMARK  Name = ../refined-set-2016/1c5s/1c5s_pocket.pdb
REMARK  137 active torsions:
REMARK  status: ('A' for Active; 'I' for Inactive)
REMARK    1  A    between atoms: _1  and  _5
REMARK    2  A    between atoms: _5  and  _6
REMARK    3  A    between atoms: _5  and  _8
REMARK    4  A    between atoms: _8  and  _9
REMARK    5  A    between atoms: _12  and  _14
REMARK    6  A    between atoms: _14  and  _15
REMARK    7  A    between atoms: _14  and  _17
REMARK    8  A    between atoms: _20  and  _22
REMARK    9  A    between atoms: _22  and  _23
REMARK   10  A    between atoms: _22  and  _25
REMARK   11  A    between atoms: _27  and  _29
REMARK   12  A    between atoms: _29  and  _30
REMARK   13  A    between atoms: _29  and  _32
REMARK   14  A    between atoms: _32  and  _33
REMARK   15  A    between atoms: _38  and  _40
REMARK   16  A    between atoms: _40  and  _41
REMARK   17  A    between atoms: _40  and  _43
REMARK   18  A    between atoms: _43  and  _44
REMARK   19  A    between atoms: _47  and  _49
REMARK   20  A    between atoms: _49  and  _50
REMARK   21  A    between atoms: _49  and  _52
REMARK   22  A    between atoms: _52  and  _53
REMARK   23  A    between atoms: _56  and  _58
REMARK   24  A    between atoms: _58  and  _59
REMARK   25  A    between atoms: _58  and  _61
REMARK   26  A    between atoms: _61  and  _62
REMARK   27  A    between atoms: _65  and  _67
REMARK   28  A    between atoms: _67  and  _68
REMARK   29  A    between atoms: _67  and  _70
REMARK   30  A    between atoms: _70  and  _71
REMARK   31  A    between atoms: _76  and  _78
REMARK   32  A    between atoms: _78  and  _79
REMARK   33  A    between atoms: _78  and  _81
REMARK   34  A    between atoms: _81  and  _82
REMARK   35  A    between atoms: _87  and  _88
REMARK   36  A    between atoms: _90  and  _92
REMARK   37  A    between atoms: _92  and  _93
REMARK   38  A    between atoms: _92  and  _95
REMARK   39  A    between atoms: _95  and  _96
REMARK   40  A    between atoms: _99  and  _101
REMARK   41  A    between atoms: _101  and  _102
REMARK   42  A    between atoms: _101  and  _104
REMARK   43  A    between atoms: _104  and  _105
REMARK   44  A    between atoms: _110  and  _111
REMARK   45  A    between atoms: _113  and  _115
REMARK   46  A    between atoms: _115  and  _116
REMARK   47  A    between atoms: _119  and  _121
REMARK   48  A    between atoms: _121  and  _122
REMARK   49  A    between atoms: _121  and  _124
REMARK   50  A    between atoms: _124  and  _125
REMARK   51  A    between atoms: _125  and  _126
REMARK   52  A    between atoms: _126  and  _127
REMARK   53  A    between atoms: _127  and  _128
REMARK   54  A    between atoms: _132  and  _134
REMARK   55  A    between atoms: _134  and  _135
REMARK   56  A    between atoms: _134  and  _137
REMARK   57  A    between atoms: _137  and  _138
REMARK   58  A    between atoms: _141  and  _143
REMARK   59  A    between atoms: _143  and  _144
REMARK   60  A    between atoms: _143  and  _146
REMARK   61  A    between atoms: _146  and  _147
REMARK   62  A    between atoms: _149  and  _151
REMARK   63  A    between atoms: _151  and  _152
REMARK   64  A    between atoms: _151  and  _154
REMARK   65  A    between atoms: _154  and  _155
REMARK   66  A    between atoms: _155  and  _265
REMARK   67  A    between atoms: _156  and  _158
REMARK   68  A    between atoms: _158  and  _159
REMARK   69  A    between atoms: _158  and  _161
REMARK   70  A    between atoms: _161  and  _162
REMARK   71  A    between atoms: _162  and  _163
REMARK   72  A    between atoms: _168  and  _170
REMARK   73  A    between atoms: _170  and  _171
REMARK   74  A    between atoms: _173  and  _175
REMARK   75  A    between atoms: _175  and  _176
REMARK   76  A    between atoms: _175  and  _178
REMARK   77  A    between atoms: _178  and  _179
REMARK   78  A    between atoms: _182  and  _184
REMARK   79  A    between atoms: _184  and  _185
REMARK   80  A    between atoms: _184  and  _187
REMARK   81  A    between atoms: _187  and  _188
REMARK   82  A    between atoms: _190  and  _192
REMARK   83  A    between atoms: _192  and  _193
REMARK   84  A    between atoms: _195  and  _197
REMARK   85  A    between atoms: _197  and  _198
REMARK   86  A    between atoms: _200  and  _202
REMARK   87  A    between atoms: _202  and  _203
REMARK   88  A    between atoms: _202  and  _205
REMARK   89  A    between atoms: _205  and  _206
REMARK   90  A    between atoms: _209  and  _211
REMARK   91  A    between atoms: _211  and  _212
REMARK   92  A    between atoms: _211  and  _214
REMARK   93  A    between atoms: _217  and  _219
REMARK   94  A    between atoms: _219  and  _220
REMARK   95  A    between atoms: _219  and  _222
REMARK   96  A    between atoms: _222  and  _223
REMARK   97  A    between atoms: _225  and  _227
REMARK   98  A    between atoms: _227  and  _228
REMARK   99  A    between atoms: _227  and  _230
REMARK  100  A    between atoms: _230  and  _231
REMARK  101  A    between atoms: _241  and  _243
REMARK  102  A    between atoms: _243  and  _244
REMARK  103  A    between atoms: _246  and  _248
REMARK  104  A    between atoms: _248  and  _249
REMARK  105  A    between atoms: _248  and  _251
REMARK  106  A    between atoms: _251  and  _252
REMARK  107  A    between atoms: _254  and  _256
REMARK  108  A    between atoms: _256  and  _257
REMARK  109  A    between atoms: _259  and  _261
REMARK  110  A    between atoms: _261  and  _262
REMARK  111  A    between atoms: _261  and  _264
REMARK  112  A    between atoms: _264  and  _265
REMARK  113  A    between atoms: _266  and  _268
REMARK  114  A    between atoms: _268  and  _269
REMARK  115  A    between atoms: _272  and  _274
REMARK  116  A    between atoms: _274  and  _275
REMARK  117  A    between atoms: _274  and  _277
REMARK  118  A    between atoms: _277  and  _278
REMARK  119  A    between atoms: _278  and  _279
REMARK  120  A    between atoms: _284  and  _286
REMARK  121  A    between atoms: _286  and  _287
REMARK  122  A    between atoms: _286  and  _289
REMARK  123  A    between atoms: _289  and  _290
REMARK  124  A    between atoms: _290  and  _291
REMARK  125  A    between atoms: _291  and  _292
REMARK  126  A    between atoms: _292  and  _293
REMARK  127  A    between atoms: _298  and  _299
REMARK  128  A    between atoms: _304  and  _306
REMARK  129  A    between atoms: _306  and  _307
REMARK  130  A    between atoms: _309  and  _311
REMARK  131  A    between atoms: _311  and  _312
REMARK  132  A    between atoms: _311  and  _314
REMARK  133  A    between atoms: _317  and  _319
REMARK  134  A    between atoms: _319  and  _320
REMARK  135  A    between atoms: _319  and  _322
REMARK  136  A    between atoms: _322  and  _323
REMARK  137  A    between atoms: _328  and  _329
REMARK                            x       y       z     vdW  Elec       q    Type
REMARK                         _______ _______ _______ _____ _____    ______ ____
ROOT
ATOM      1  CA  ALA A   1      42.184   9.688  56.290  0.00  0.00    +0.133 C 
ATOM      2  CB  ALA A   1      42.132   9.342  54.778  0.00  0.00    +0.027 C 
ENDROOT
BRANCH   1   3
ATOM      3  N   ALA A   1      41.328  10.865  56.655  0.00  0.00    -0.239 NA
ATOM      4  H   ALA A   1      41.683  11.830  56.497  0.00  0.00    +0.142 HD
ENDBRANCH   1   3
BRANCH   1   5
ATOM      5  C   ALA A   1      43.598  10.116  56.629  0.00  0.00    +0.224 C 
ATOM      6  O   ALA A   1      43.929  11.286  56.480  0.00  0.00    -0.287 OA
ENDBRANCH   1   5
TORSDOF 2
REMARK  Name = ../refined-set-2016/1c5s/1c5s_pocket.pdb
REMARK  137 active torsions:
REMARK  status: ('A' for Active; 'I' for Inactive)
REMARK    1  A    between atoms: _1  and  _5
REMARK    2  A    between atoms: _5  and  _6
REMARK    3  A    between atoms: _5  and  _8
REMARK    4  A    between atoms: _8  and  _9
REMARK    5  A    between atoms: _12  and  _14
REMARK    6  A    between atoms: _14  and  _15
REMARK    7  A    between atoms: _14  and  _17
REMARK    8  A    between atoms: _20  and  _22
REMARK    9  A    between atoms: _22  and  _23
REMARK   10  A    between atoms: _22  and  _25
REMARK   11  A    between atoms: _27  and  _29
REMARK   12  A    between atoms: _29  and  _30
REMARK   13  A    between atoms: _29  and  _32
REMARK   14  A    between atoms: _32  and  _33
REMARK   15  A    between atoms: _38  and  _40
REMARK   16  A    between atoms: _40  and  _41
REMARK   17  A    between atoms: _40  and  _43
REMARK   18  A    between atoms: _43  and  _44
REMARK   19  A    between atoms: _47  and  _49
REMARK   20  A    between atoms: _49  and  _50
REMARK   21  A    between atoms: _49  and  _52
REMARK   22  A    between atoms: _52  and  _53
REMARK   23  A    between atoms: _56  and  _58
REMARK   24  A    between atoms: _58  and  _59
REMARK   25  A    between atoms: _58  and  _61
REMARK   26  A    between atoms: _61  and  _62
REMARK   27  A    between atoms: _65  and  _67
REMARK   28  A    between atoms: _67  and  _68
REMARK   29  A    between atoms: _67  and  _70
REMARK   30  A    between atoms: _70  and  _71
REMARK   31  A    between atoms: _76  and  _78
REMARK   32  A    between atoms: _78  and  _79
REMARK   33  A    between atoms: _78  and  _81
REMARK   34  A    between atoms: _81  and  _82
REMARK   35  A    between atoms: _87  and  _88
REMARK   36  A    between atoms: _90  and  _92
REMARK   37  A    between atoms: _92  and  _93
REMARK   38  A    between atoms: _92  and  _95
REMARK   39  A    between atoms: _95  and  _96
REMARK   40  A    between atoms: _99  and  _101
REMARK   41  A    between atoms: _101  and  _102
REMARK   42  A    between atoms: _101  and  _104
REMARK   43  A    between atoms: _104  and  _105
REMARK   44  A    between atoms: _110  and  _111
REMARK   45  A    between atoms: _113  and  _115
REMARK   46  A    between atoms: _115  and  _116
REMARK   47  A    between atoms: _119  and  _121
REMARK   48  A    between atoms: _121  and  _122
REMARK   49  A    between atoms: _121  and  _124
REMARK   50  A    between atoms: _124  and  _125
REMARK   51  A    between atoms: _125  and  _126
REMARK   52  A    between atoms: _126  and  _127
REMARK   53  A    between atoms: _127  and  _128
REMARK   54  A    between atoms: _132  and  _134
REMARK   55  A    between atoms: _134  and  _135
REMARK   56  A    between atoms: _134  and  _137
REMARK   57  A    between atoms: _137  and  _138
REMARK   58  A    between atoms: _141  and  _143
REMARK   59  A    between atoms: _143  and  _144
REMARK   60  A    between atoms: _143  and  _146
REMARK   61  A    between atoms: _146  and  _147
REMARK   62  A    between atoms: _149  and  _151
REMARK   63  A    between atoms: _151  and  _152
REMARK   64  A    between atoms: _151  and  _154
REMARK   65  A    between atoms: _154  and  _155
REMARK   66  A    between atoms: _155  and  _265
REMARK   67  A    between atoms: _156  and  _158
REMARK   68  A    between atoms: _158  and  _159
REMARK   69  A    between atoms: _158  and  _161
REMARK   70  A    between atoms: _161  and  _162
REMARK   71  A    between atoms: _162  and  _163
REMARK   72  A    between atoms: _168  and  _170
REMARK   73  A    between atoms: _170  and  _171
REMARK   74  A    between atoms: _173  and  _175
REMARK   75  A    between atoms: _175  and  _176
REMARK   76  A    between atoms: _175  and  _178
REMARK   77  A    between atoms: _178  and  _179
REMARK   78  A    between atoms: _182  and  _184
REMARK   79  A    between atoms: _184  and  _185
REMARK   80  A    between atoms: _184  and  _187
REMARK   81  A    between atoms: _187  and  _188
REMARK   82  A    between atoms: _190  and  _192
REMARK   83  A    between atoms: _192  and  _193
REMARK   84  A    between atoms: _195  and  _197
REMARK   85  A    between atoms: _197  and  _198
REMARK   86  A    between atoms: _200  and  _202
REMARK   87  A    between atoms: _202  and  _203
REMARK   88  A    between atoms: _202  and  _205
REMARK   89  A    between atoms: _205  and  _206
REMARK   90  A    between atoms: _209  and  _211
REMARK   91  A    between atoms: _211  and  _212
REMARK   92  A    between atoms: _211  and  _214
REMARK   93  A    between atoms: _217  and  _219
REMARK   94  A    between atoms: _219  and  _220
REMARK   95  A    between atoms: _219  and  _222
REMARK   96  A    between atoms: _222  and  _223
REMARK   97  A    between atoms: _225  and  _227
REMARK   98  A    between atoms: _227  and  _228
REMARK   99  A    between atoms: _227  and  _230
REMARK  100  A    between atoms: _230  and  _231
REMARK  101  A    between atoms: _241  and  _243
REMARK  102  A    between atoms: _243  and  _244
REMARK  103  A    between atoms: _246  and  _248
REMARK  104  A    between atoms: _248  and  _249
REMARK  105  A    between atoms: _248  and  _251
REMARK  106  A    between atoms: _251  and  _252
REMARK  107  A    between atoms: _254  and  _256
REMARK  108  A    between atoms: _256  and  _257
REMARK  109  A    between atoms: _259  and  _261
REMARK  110  A    between atoms: _261  and  _262
REMARK  111  A    between atoms: _261  and  _264
REMARK  112  A    between atoms: _264  and  _265
REMARK  113  A    between atoms: _266  and  _268
REMARK  114  A    between atoms: _268  and  _269
REMARK  115  A    between atoms: _272  and  _274
REMARK  116  A    between atoms: _274  and  _275
REMARK  117  A    between atoms: _274  and  _277
REMARK  118  A    between atoms: _277  and  _278
REMARK  119  A    between atoms: _278  and  _279
REMARK  120  A    between atoms: _284  and  _286
REMARK  121  A    between atoms: _286  and  _287
REMARK  122  A    between atoms: _286  and  _289
REMARK  123  A    between atoms: _289  and  _290
REMARK  124  A    between atoms: _290  and  _291
REMARK  125  A    between atoms: _291  and  _292
REMARK  126  A    between atoms: _292  and  _293
REMARK  127  A    between atoms: _298  and  _299
REMARK  128  A    between atoms: _304  and  _306
REMARK  129  A    between atoms: _306  and  _307
REMARK  130  A    between atoms: _309  and  _311
REMARK  131  A    between atoms: _311  and  _312
REMARK  132  A    between atoms: _311  and  _314
REMARK  133  A    between atoms: _317  and  _319
REMARK  134  A    between atoms: _319  and  _320
REMARK  135  A    between atoms: _319  and  _322
REMARK  136  A    between atoms: _322  and  _323
REMARK  137  A    between atoms: _328  and  _329
REMARK                            x       y       z     vdW  Elec       q    Type
REMARK                         _______ _______ _______ _____ _____    ______ ____
ROOT
ATOM      1  CB  SER A   8      50.942  19.154  54.748  0.00  0.00    +0.098 C 
ENDROOT
BRANCH   1   2
ATOM      2  SG  SER A   8      50.182  20.354  53.623  0.00  0.00    -0.080 S 
BRANCH   2   3
ATOM      3  SG  TRP A   4      51.246  20.297  51.892  0.00  0.00    -0.080 S 
BRANCH   3   4
ATOM      4  CB  TRP A   4      50.517  18.858  51.089  0.00  0.00    +0.098 C 
BRANCH   4   5
ATOM      5  CA  TRP A   4      48.960  18.831  50.929  0.00  0.00    +0.160 C 
BRANCH   5   6
ATOM      6  C   TRP A   4      48.510  19.727  49.765  0.00  0.00    +0.242 C 
ATOM      7  N   GLN A   5      48.727  21.024  49.848  0.00  0.00    -0.297 N 
ATOM      8  H   GLN A   5      49.187  21.456  50.675  0.00  0.00    +0.150 HD
ATOM      9  O   TRP A   4      47.983  19.207  48.780  0.00  0.00    -0.273 OA
BRANCH   7  10
ATOM     10  CA  GLN A   5      48.270  21.837  48.677  0.00  0.00    +0.149 C 
BRANCH  10  11
ATOM     11  C   GLN A   5      48.981  21.386  47.390  0.00  0.00    +0.241 C 
ATOM     12  O   GLN A   5      50.136  20.978  47.368  0.00  0.00    -0.273 OA
ATOM     13  N   GLY A   6      48.212  21.468  46.337  0.00  0.00    -0.295 N 
ATOM     14  H   GLY A   6      47.241  21.823  46.448  0.00  0.00    +0.150 HD
BRANCH  13  15
ATOM     15  CA  GLY A   6      48.685  21.067  44.979  0.00  0.00    +0.176 C 
BRANCH  15  16
ATOM     16  C   GLY A   6      48.038  19.698  44.714  0.00  0.00    +0.243 C 
ATOM     17  N   ASP A   7      47.672  19.033  45.800  0.00  0.00    -0.296 N 
ATOM     18  H   ASP A   7      47.848  19.456  46.734  0.00  0.00    +0.150 HD
ATOM     19  O   GLY A   6      47.900  19.283  43.578  0.00  0.00    -0.273 OA
BRANCH  17  20
ATOM     20  CA  ASP A   7      47.012  17.688  45.724  0.00  0.00    +0.160 C 
BRANCH  20  21
ATOM     21  C   ASP A   7      45.464  17.867  45.661  0.00  0.00    +0.241 C 
ATOM     22  N   SER A   8      44.998  19.053  45.995  0.00  0.00    -0.295 N 
ATOM     23  H   SER A   8      45.682  19.781  46.285  0.00  0.00    +0.150 HD
ATOM     24  O   ASP A   7      44.775  16.918  45.339  0.00  0.00    -0.273 OA
BRANCH  22  25
ATOM     25  CA  SER A   8      43.538  19.422  45.983  0.00  0.00    +0.178 C 
BRANCH  25  26
ATOM     26  C   SER A   8      42.801  18.802  44.784  0.00  0.00    +0.243 C 
ATOM     27  N   GLY A   9      41.617  18.276  45.016  0.00  0.00    -0.295 N 
ATOM     28  H   GLY A   9      41.234  18.276  45.983  0.00  0.00    +0.150 HD
ATOM     29  O   SER A   8      43.363  18.828  43.699  0.00  0.00    -0.273 OA
BRANCH  27  30
ATOM     30  CA  GLY A   9      40.814  17.676  43.900  0.00  0.00    +0.176 C 
BRANCH  30  31
ATOM     31  C   GLY A   9      41.185  16.253  43.504  0.00  0.00    +0.243 C 
ATOM     32  N   GLY A  10      42.323  15.809  43.963  0.00  0.00    -0.296 N 
ATOM     33  H   GLY A  10      42.909  16.416  44.571  0.00  0.00    +0.150 HD
ATOM     34  O   GLY A   9      40.433  15.605  42.800  0.00  0.00    -0.273 OA
BRANCH  32  35
ATOM     35  CA  GLY A  10      42.779  14.452  43.622  0.00  0.00    +0.163 C 
BRANCH  35  36
ATOM     36  C   GLY A  10      42.005  13.329  44.288  0.00  0.00    +0.229 C 
ATOM     37  O   GLY A  10      41.274  13.560  45.225  0.00  0.00    -0.286 OA
ENDBRANCH  35  36
ENDBRANCH  32  35
ENDBRANCH  30  31
ENDBRANCH  27  30
ENDBRANCH  25  26
BRANCH  25  38
ATOM     38  CB  SER A   8      43.323  20.973  45.846  0.00  0.00    +0.166 C 
BRANCH  38  39
ATOM     39  OG  SER A   8      43.740  21.575  47.067  0.00  0.00    -0.380 OA
ATOM     40  H   SER A   8      43.616  22.555  47.010  0.00  0.00    +0.211 HD
ENDBRANCH  38  39
ENDBRANCH  25  38
ENDBRANCH  22  25
ENDBRANCH  20  21
BRANCH  20  41
ATOM     41  CB  ASP A   7      47.327  16.825  46.971  0.00  0.00    +0.143 C 
BRANCH  41  42
ATOM     42  CG  ASP A   7      48.805  16.370  47.022  0.00  0.00    +0.367 C 
ATOM     43  OD2 ASP A   7      49.319  16.253  48.113  0.00  0.00    -0.246 OA
ATOM     44  OD1 ASP A   7      49.355  16.142  45.962  0.00  0.00    -0.246 OA
ENDBRANCH  41  42
ENDBRANCH  20  41
ENDBRANCH  17  20
ENDBRANCH  15  16
ENDBRANCH  13  15
ENDBRANCH  10  11
BRANCH  10  45
ATOM     45  CB  GLN A   5      48.515  23.346  48.912  0.00  0.00    +0.039 C 
BRANCH  45  46
ATOM     46  CG  GLN A   5      49.775  23.679  49.620  0.00  0.00    +0.087 C 
BRANCH  46  47
ATOM     47  CD  GLN A   5      49.699  25.204  49.818  0.00  0.00    +0.219 C 
ATOM     48  OE1 GLN A   5      48.863  25.697  50.551  0.00  0.00    -0.275 OA
ATOM     49  NE2 GLN A   5      50.527  25.977  49.192  0.00  0.00    -0.329 N 
ATOM     50 HE21 GLN A   5      50.473  27.008  49.319  0.00  0.00    +0.145 HD
ATOM     51 HE22 GLN A   5      51.246  25.567  48.562  0.00  0.00    +0.145 HD
ENDBRANCH  46  47
ENDBRANCH  45  46
ENDBRANCH  10  45
ENDBRANCH   7  10
ENDBRANCH   5   6
BRANCH   5  54
ATOM     52  C   SER A   3      48.461  16.539  51.566  0.00  0.00    +0.243 C 
ATOM     53  O   SER A   3      48.625  16.827  52.749  0.00  0.00    -0.273 OA
ATOM     54  N   TRP A   4      48.581  17.425  50.613  0.00  0.00    -0.296 N 
ATOM     55  H   TRP A   4      48.411  17.146  49.626  0.00  0.00    +0.150 HD
BRANCH  52  56
ATOM     56  CA  SER A   3      48.094  15.045  51.171  0.00  0.00    +0.178 C 
BRANCH  56  58
ATOM     57  C   VAL A   2      49.396  13.840  52.888  0.00  0.00    +0.241 C 
ATOM     58  N   SER A   3      48.256  14.378  52.503  0.00  0.00    -0.295 N 
ATOM     59  H   SER A   3      47.440  14.338  53.147  0.00  0.00    +0.150 HD
ATOM     60  O   VAL A   2      50.414  13.818  52.202  0.00  0.00    -0.273 OA
BRANCH  57  61
ATOM     61  CA  VAL A   2      49.386  13.231  54.304  0.00  0.00    +0.160 C 
BRANCH  61  64
ATOM     62  C   ILE A   1      50.884  11.878  55.690  0.00  0.00    +0.238 C 
ATOM     63  O   ILE A   1      50.055  11.779  56.586  0.00  0.00    -0.274 OA
ATOM     64  N   VAL A   2      50.689  12.520  54.563  0.00  0.00    -0.297 N 
ATOM     65  H   VAL A   2      51.439  12.538  53.843  0.00  0.00    +0.150 HD
BRANCH  62  66
ATOM     66  CA  ILE A   1      52.222  11.192  55.904  0.00  0.00    +0.145 C 
BRANCH  66  67
ATOM     67  N   ILE A   1      52.737  11.568  57.268  0.00  0.00    -0.238 NA
ATOM     68  H   ILE A   1      52.132  11.416  58.100  0.00  0.00    +0.142 HD
ENDBRANCH  66  67
BRANCH  66  69
ATOM     69  CB  ILE A   1      52.045   9.680  55.856  0.00  0.00    +0.026 C 
BRANCH  69  70
ATOM     70  CG  ILE A   1      53.420   8.931  55.780  0.00  0.00    -0.000 C 
BRANCH  70  71
ATOM     71  CD  ILE A   1      53.311   7.569  56.529  0.00  0.00    -0.024 C 
BRANCH  71  72
ATOM     72  CE  ILE A   1      54.083   7.641  57.907  0.00  0.00    -0.086 C 
BRANCH  72  73
ATOM     73  NZ  ILE A   1      53.362   8.440  58.950  0.00  0.00    +0.380 N 
ATOM     74  HZ1 ILE A   1      53.921   8.447  59.827  0.00  0.00    -0.089 HD
ATOM     75  HZ2 ILE A   1      52.433   8.010  59.133  0.00  0.00    -0.089 HD
ATOM     76  HZ3 ILE A   1      53.234   9.415  58.611  0.00  0.00    -0.089 HD
ENDBRANCH  72  73
ENDBRANCH  71  72
ENDBRANCH  70  71
ENDBRANCH  69  70
ENDBRANCH  66  69
ENDBRANCH  62  66
ENDBRANCH  61  64
BRANCH  61  77
ATOM     77  CB  VAL A   2      49.280  14.368  55.307  0.00  0.00    +0.143 C 
BRANCH  77  78
ATOM     78  CG  VAL A   2      47.939  15.109  55.442  0.00  0.00    +0.367 C 
ATOM     79  OD2 VAL A   2      48.004  16.111  56.141  0.00  0.00    -0.246 OA
ATOM     80  OD1 VAL A   2      46.958  14.664  54.882  0.00  0.00    -0.246 OA
ENDBRANCH  77  78
ENDBRANCH  61  77
ENDBRANCH  57  61
ENDBRANCH  56  58
BRANCH  56  81
ATOM     81  CB  SER A   3      46.602  14.901  50.646  0.00  0.00    +0.166 C 
BRANCH  81  82
ATOM     82  OG  SER A   3      45.745  15.358  51.664  0.00  0.00    -0.380 OA
ATOM     83  H   SER A   3      45.879  14.810  52.477  0.00  0.00    +0.211 HD
ENDBRANCH  81  82
ENDBRANCH  56  81
ENDBRANCH  52  56
ENDBRANCH   5  54
ENDBRANCH   4   5
ENDBRANCH   3   4
ENDBRANCH   2   3
ENDBRANCH   1   2
BRANCH   1  84
ATOM     84  CA  SER A   8      50.273  19.039  56.165  0.00  0.00    +0.160 C 
BRANCH  84  85
ATOM     85  N   SER A   8      50.165  20.350  56.839  0.00  0.00    -0.296 N 
ATOM     86  H   SER A   8      51.002  20.775  57.286  0.00  0.00    +0.150 HD
ATOM     87  C   ASP A   7      49.024  20.972  56.873  0.00  0.00    +0.243 C 
ATOM     88  O   ASP A   7      48.006  20.530  56.356  0.00  0.00    -0.273 OA
BRANCH  87  89
ATOM     89  CA  ASP A   7      48.989  22.324  57.594  0.00  0.00    +0.176 C 
BRANCH  89  90
ATOM     90  N   ASP A   7      47.553  22.551  57.878  0.00  0.00    -0.295 N 
ATOM     91  C   GLY A   6      46.939  21.758  58.706  0.00  0.00    +0.243 C 
ATOM     92  O   GLY A   6      47.472  20.811  59.266  0.00  0.00    -0.273 OA
ATOM     93  H   ASP A   7      47.043  23.334  57.421  0.00  0.00    +0.150 HD
BRANCH  91  94
ATOM     94  CA  GLY A   6      45.452  22.070  58.929  0.00  0.00    +0.178 C 
BRANCH  94  95
ATOM     95  N   GLY A   6      44.764  20.969  58.170  0.00  0.00    -0.295 N 
ATOM     96  H   GLY A   6      44.769  20.008  58.567  0.00  0.00    +0.150 HD
ATOM     97  C   GLN A   5      44.157  21.177  57.025  0.00  0.00    +0.243 C 
ATOM     98  O   GLN A   5      44.080  22.262  56.465  0.00  0.00    -0.273 OA
BRANCH  97  99
ATOM     99  CA  GLN A   5      43.503  19.973  56.352  0.00  0.00    +0.176 C 
BRANCH  99 100
ATOM    100  N   GLN A   5      42.787  20.516  55.156  0.00  0.00    -0.295 N 
ATOM    101  H   GLN A   5      42.775  21.542  54.988  0.00  0.00    +0.150 HD
ATOM    102  C   TRP A   4      42.179  19.723  54.324  0.00  0.00    +0.241 C 
ATOM    103  O   TRP A   4      42.147  18.510  54.420  0.00  0.00    -0.273 OA
BRANCH 102 104
ATOM    104  CA  TRP A   4      41.500  20.409  53.172  0.00  0.00    +0.153 C 
BRANCH 104 105
ATOM    105  N   TRP A   4      40.742  19.444  52.326  0.00  0.00    -0.297 N 
ATOM    106  H   TRP A   4      40.414  18.535  52.710  0.00  0.00    +0.150 HD
ATOM    107  C   SER A   3      40.504  19.778  51.087  0.00  0.00    +0.243 C 
ATOM    108  O   SER A   3      40.866  20.837  50.608  0.00  0.00    -0.273 OA
BRANCH 107 109
ATOM    109  CA  SER A   3      39.728  18.815  50.196  0.00  0.00    +0.178 C 
BRANCH 109 110
ATOM    110  N   SER A   3      40.448  17.530  49.915  0.00  0.00    -0.295 N 
ATOM    111  H   SER A   3      40.679  16.885  50.697  0.00  0.00    +0.150 HD
ATOM    112  C   VAL A   2      40.788  17.216  48.688  0.00  0.00    +0.241 C 
ATOM    113  O   VAL A   2      40.590  17.924  47.710  0.00  0.00    -0.273 OA
BRANCH 112 114
ATOM    114  CA  VAL A   2      41.499  15.856  48.542  0.00  0.00    +0.148 C 
BRANCH 114 115
ATOM    115  N   VAL A   2      40.633  15.034  47.635  0.00  0.00    -0.297 N 
ATOM    116  C   ILE A   1      39.377  14.752  47.954  0.00  0.00    +0.238 C 
ATOM    117  O   ILE A   1      38.822  15.111  48.977  0.00  0.00    -0.274 OA
ATOM    118  H   VAL A   2      41.024  14.679  46.739  0.00  0.00    +0.150 HD
BRANCH 116 119
ATOM    119  CA  ILE A   1      38.544  13.912  46.972  0.00  0.00    +0.145 C 
BRANCH 119 120
ATOM    120  N   ILE A   1      37.907  12.858  47.780  0.00  0.00    -0.238 NA
ATOM    121  H   ILE A   1      37.419  13.120  48.660  0.00  0.00    +0.142 HD
ENDBRANCH 119 120
BRANCH 119 122
ATOM    122  CB  ILE A   1      37.431  14.792  46.299  0.00  0.00    +0.025 C 
ATOM    123  CG2 ILE A   1      38.084  15.947  45.451  0.00  0.00    +0.002 C 
BRANCH 122 124
ATOM    124  CG1 ILE A   1      36.503  13.905  45.358  0.00  0.00    +0.002 C 
ATOM    125  CD1 ILE A   1      35.363  14.778  44.813  0.00  0.00    +0.000 C 
ENDBRANCH 122 124
ENDBRANCH 119 122
ENDBRANCH 116 119
ENDBRANCH 114 115
BRANCH 114 126
ATOM    126  CB  VAL A   2      42.903  16.040  47.904  0.00  0.00    +0.027 C 
ATOM    127  CG2 VAL A   2      43.780  16.899  48.810  0.00  0.00    +0.002 C 
ATOM    128  CG1 VAL A   2      43.587  14.645  47.698  0.00  0.00    +0.002 C 
ENDBRANCH 114 126
ENDBRANCH 112 114
ENDBRANCH 109 110
BRANCH 109 129
ATOM    129  CB  SER A   3      38.331  18.418  50.824  0.00  0.00    +0.166 C 
BRANCH 129 130
ATOM    130  OG  SER A   3      37.544  19.594  50.970  0.00  0.00    -0.380 OA
ATOM    131  H   SER A   3      37.407  20.011  50.082  0.00  0.00    +0.211 HD
ENDBRANCH 129 130
ENDBRANCH 109 129
ENDBRANCH 107 109
ENDBRANCH 104 105
BRANCH 104 132
ATOM    132  CB  TRP A   4      40.536  21.513  53.706  0.00  0.00    +0.057 C 
BRANCH 132 133
ATOM    133  CG  TRP A   4      39.327  21.048  54.520  0.00  0.00    -0.002 A 
ATOM    134  CD2 TRP A   4      39.238  21.079  55.876  0.00  0.00    +0.013 A 
ATOM    135  CE3 TRP A   4      40.151  21.477  56.872  0.00  0.00    +0.001 A 
ATOM    136  CZ3 TRP A   4      39.804  21.404  58.218  0.00  0.00    +0.000 A 
ATOM    137  CH2 TRP A   4      38.548  20.933  58.587  0.00  0.00    +0.001 A 
ATOM    138  CZ2 TRP A   4      37.626  20.534  57.610  0.00  0.00    +0.017 A 
ATOM    139  CE2 TRP A   4      37.969  20.605  56.258  0.00  0.00    +0.056 A 
ATOM    140  NE1 TRP A   4      37.415  20.336  55.083  0.00  0.00    -0.352 N 
ATOM    141  HE1 TRP A   4      36.448  19.961  55.007  0.00  0.00    +0.166 HD
ATOM    142  CD1 TRP A   4      38.159  20.570  54.010  0.00  0.00    +0.068 A 
ENDBRANCH 132 133
ENDBRANCH 104 132
ENDBRANCH 102 104
ENDBRANCH  99 100
ENDBRANCH  97  99
ENDBRANCH  94  95
BRANCH  94 143
ATOM    143  CB  GLY A   6      45.093  21.990  60.425  0.00  0.00    +0.166 C 
BRANCH 143 144
ATOM    144  O   GLY A   6      45.697  23.146  60.990  0.00  0.00    -0.380 OA
ATOM    145  H   GLY A   6      45.512  23.172  61.962  0.00  0.00    +0.211 HD
ENDBRANCH 143 144
ENDBRANCH  94 143
ENDBRANCH  91  94
ENDBRANCH  89  90
ENDBRANCH  87  89
ENDBRANCH  84  85
BRANCH  84 146
ATOM    146  C   SER A   8      51.161  18.203  57.042  0.00  0.00    +0.242 C 
ATOM    147  O   SER A   8      52.170  18.668  57.546  0.00  0.00    -0.273 OA
ATOM    148  N   GLY A   9      50.734  16.984  57.168  0.00  0.00    -0.297 N 
ATOM    149  H   GLY A   9      49.852  16.733  56.677  0.00  0.00    +0.150 HD
BRANCH 148 150
ATOM    150  CA  GLY A   9      51.406  15.914  57.961  0.00  0.00    +0.149 C 
ATOM    151  CB  GLY A   9      52.734  15.543  57.272  0.00  0.00    +0.031 C 
BRANCH 150 152
ATOM    152  C   GLY A   9      51.673  16.298  59.394  0.00  0.00    +0.241 C 
ATOM    153  O   GLY A   9      52.621  15.809  59.978  0.00  0.00    -0.273 OA
ATOM    154  N   GLY A  10      50.828  17.136  59.905  0.00  0.00    -0.298 N 
ATOM    155  H   GLY A  10      50.036  17.499  59.337  0.00  0.00    +0.150 HD
BRANCH 154 156
ATOM    156  CA  GLY A  10      51.004  17.569  61.307  0.00  0.00    +0.137 C 
BRANCH 156 157
ATOM    157  C   GLY A  10      50.325  16.504  62.182  0.00  0.00    +0.227 C 
ATOM    158  O   GLY A  10      49.402  15.806  61.785  0.00  0.00    -0.286 OA
ENDBRANCH 156 157
BRANCH 156 159
ATOM    159  CB  GLY A  10      50.305  18.944  61.581  0.00  0.00    +0.037 C 
BRANCH 159 160
ATOM    160  CG  GLY A  10      50.941  20.167  60.849  0.00  0.00    +0.087 C 
BRANCH 160 161
ATOM    161  CD  GLY A  10      52.368  20.326  61.330  0.00  0.00    +0.219 C 
ATOM    162  OE1 GLY A  10      52.609  20.652  62.473  0.00  0.00    -0.275 OA
ATOM    163  NE2 GLY A  10      53.346  20.103  60.515  0.00  0.00    -0.329 N 
ATOM    164 HE21 GLY A  10      54.328  20.204  60.842  0.00  0.00    +0.145 HD
ATOM    165 HE22 GLY A  10      53.151  19.823  59.533  0.00  0.00    +0.145 HD
ENDBRANCH 160 161
ENDBRANCH 159 160
ENDBRANCH 156 159
ENDBRANCH 154 156
ENDBRANCH 150 152
ENDBRANCH 148 150
ENDBRANCH  84 146
ENDBRANCH   1  84
TORSDOF 73
REMARK  Name = ../refined-set-2016/1c5s/1c5s_pocket.pdb
REMARK  137 active torsions:
REMARK  status: ('A' for Active; 'I' for Inactive)
REMARK    1  A    between atoms: _1  and  _5
REMARK    2  A    between atoms: _5  and  _6
REMARK    3  A    between atoms: _5  and  _8
REMARK    4  A    between atoms: _8  and  _9
REMARK    5  A    between atoms: _12  and  _14
REMARK    6  A    between atoms: _14  and  _15
REMARK    7  A    between atoms: _14  and  _17
REMARK    8  A    between atoms: _20  and  _22
REMARK    9  A    between atoms: _22  and  _23
REMARK   10  A    between atoms: _22  and  _25
REMARK   11  A    between atoms: _27  and  _29
REMARK   12  A    between atoms: _29  and  _30
REMARK   13  A    between atoms: _29  and  _32
REMARK   14  A    between atoms: _32  and  _33
REMARK   15  A    between atoms: _38  and  _40
REMARK   16  A    between atoms: _40  and  _41
REMARK   17  A    between atoms: _40  and  _43
REMARK   18  A    between atoms: _43  and  _44
REMARK   19  A    between atoms: _47  and  _49
REMARK   20  A    between atoms: _49  and  _50
REMARK   21  A    between atoms: _49  and  _52
REMARK   22  A    between atoms: _52  and  _53
REMARK   23  A    between atoms: _56  and  _58
REMARK   24  A    between atoms: _58  and  _59
REMARK   25  A    between atoms: _58  and  _61
REMARK   26  A    between atoms: _61  and  _62
REMARK   27  A    between atoms: _65  and  _67
REMARK   28  A    between atoms: _67  and  _68
REMARK   29  A    between atoms: _67  and  _70
REMARK   30  A    between atoms: _70  and  _71
REMARK   31  A    between atoms: _76  and  _78
REMARK   32  A    between atoms: _78  and  _79
REMARK   33  A    between atoms: _78  and  _81
REMARK   34  A    between atoms: _81  and  _82
REMARK   35  A    between atoms: _87  and  _88
REMARK   36  A    between atoms: _90  and  _92
REMARK   37  A    between atoms: _92  and  _93
REMARK   38  A    between atoms: _92  and  _95
REMARK   39  A    between atoms: _95  and  _96
REMARK   40  A    between atoms: _99  and  _101
REMARK   41  A    between atoms: _101  and  _102
REMARK   42  A    between atoms: _101  and  _104
REMARK   43  A    between atoms: _104  and  _105
REMARK   44  A    between atoms: _110  and  _111
REMARK   45  A    between atoms: _113  and  _115
REMARK   46  A    between atoms: _115  and  _116
REMARK   47  A    between atoms: _119  and  _121
REMARK   48  A    between atoms: _121  and  _122
REMARK   49  A    between atoms: _121  and  _124
REMARK   50  A    between atoms: _124  and  _125
REMARK   51  A    between atoms: _125  and  _126
REMARK   52  A    between atoms: _126  and  _127
REMARK   53  A    between atoms: _127  and  _128
REMARK   54  A    between atoms: _132  and  _134
REMARK   55  A    between atoms: _134  and  _135
REMARK   56  A    between atoms: _134  and  _137
REMARK   57  A    between atoms: _137  and  _138
REMARK   58  A    between atoms: _141  and  _143
REMARK   59  A    between atoms: _143  and  _144
REMARK   60  A    between atoms: _143  and  _146
REMARK   61  A    between atoms: _146  and  _147
REMARK   62  A    between atoms: _149  and  _151
REMARK   63  A    between atoms: _151  and  _152
REMARK   64  A    between atoms: _151  and  _154
REMARK   65  A    between atoms: _154  and  _155
REMARK   66  A    between atoms: _155  and  _265
REMARK   67  A    between atoms: _156  and  _158
REMARK   68  A    between atoms: _158  and  _159
REMARK   69  A    between atoms: _158  and  _161
REMARK   70  A    between atoms: _161  and  _162
REMARK   71  A    between atoms: _162  and  _163
REMARK   72  A    between atoms: _168  and  _170
REMARK   73  A    between atoms: _170  and  _171
REMARK   74  A    between atoms: _173  and  _175
REMARK   75  A    between atoms: _175  and  _176
REMARK   76  A    between atoms: _175  and  _178
REMARK   77  A    between atoms: _178  and  _179
REMARK   78  A    between atoms: _182  and  _184
REMARK   79  A    between atoms: _184  and  _185
REMARK   80  A    between atoms: _184  and  _187
REMARK   81  A    between atoms: _187  and  _188
REMARK   82  A    between atoms: _190  and  _192
REMARK   83  A    between atoms: _192  and  _193
REMARK   84  A    between atoms: _195  and  _197
REMARK   85  A    between atoms: _197  and  _198
REMARK   86  A    between atoms: _200  and  _202
REMARK   87  A    between atoms: _202  and  _203
REMARK   88  A    between atoms: _202  and  _205
REMARK   89  A    between atoms: _205  and  _206
REMARK   90  A    between atoms: _209  and  _211
REMARK   91  A    between atoms: _211  and  _212
REMARK   92  A    between atoms: _211  and  _214
REMARK   93  A    between atoms: _217  and  _219
REMARK   94  A    between atoms: _219  and  _220
REMARK   95  A    between atoms: _219  and  _222
REMARK   96  A    between atoms: _222  and  _223
REMARK   97  A    between atoms: _225  and  _227
REMARK   98  A    between atoms: _227  and  _228
REMARK   99  A    between atoms: _227  and  _230
REMARK  100  A    between atoms: _230  and  _231
REMARK  101  A    between atoms: _241  and  _243
REMARK  102  A    between atoms: _243  and  _244
REMARK  103  A    between atoms: _246  and  _248
REMARK  104  A    between atoms: _248  and  _249
REMARK  105  A    between atoms: _248  and  _251
REMARK  106  A    between atoms: _251  and  _252
REMARK  107  A    between atoms: _254  and  _256
REMARK  108  A    between atoms: _256  and  _257
REMARK  109  A    between atoms: _259  and  _261
REMARK  110  A    between atoms: _261  and  _262
REMARK  111  A    between atoms: _261  and  _264
REMARK  112  A    between atoms: _264  and  _265
REMARK  113  A    between atoms: _266  and  _268
REMARK  114  A    between atoms: _268  and  _269
REMARK  115  A    between atoms: _272  and  _274
REMARK  116  A    between atoms: _274  and  _275
REMARK  117  A    between atoms: _274  and  _277
REMARK  118  A    between atoms: _277  and  _278
REMARK  119  A    between atoms: _278  and  _279
REMARK  120  A    between atoms: _284  and  _286
REMARK  121  A    between atoms: _286  and  _287
REMARK  122  A    between atoms: _286  and  _289
REMARK  123  A    between atoms: _289  and  _290
REMARK  124  A    between atoms: _290  and  _291
REMARK  125  A    between atoms: _291  and  _292
REMARK  126  A    between atoms: _292  and  _293
REMARK  127  A    between atoms: _298  and  _299
REMARK  128  A    between atoms: _304  and  _306
REMARK  129  A    between atoms: _306  and  _307
REMARK  130  A    between atoms: _309  and  _311
REMARK  131  A    between atoms: _311  and  _312
REMARK  132  A    between atoms: _311  and  _314
REMARK  133  A    between atoms: _317  and  _319
REMARK  134  A    between atoms: _319  and  _320
REMARK  135  A    between atoms: _319  and  _322
REMARK  136  A    between atoms: _322  and  _323
REMARK  137  A    between atoms: _328  and  _329
REMARK                            x       y       z     vdW  Elec       q    Type
REMARK                         _______ _______ _______ _____ _____    ______ ____
ROOT
ATOM      1  C   GLY A   3      42.077  14.953  55.908  0.00  0.00    +0.243 C 
ATOM      2  O   GLY A   3      41.639  13.956  56.468  0.00  0.00    -0.273 OA
ATOM      3  N   VAL A   4      41.374  15.901  55.319  0.00  0.00    -0.297 N 
ATOM      4  H   VAL A   4      41.886  16.689  54.874  0.00  0.00    +0.150 HD
ENDROOT
BRANCH   1   5
ATOM      5  CA  GLY A   3      43.589  15.145  55.855  0.00  0.00    +0.176 C 
BRANCH   5   8
ATOM      6  C   PRO A   2      44.198  15.129  58.179  0.00  0.00    +0.241 C 
ATOM      7  O   PRO A   2      43.725  16.244  58.306  0.00  0.00    -0.273 OA
ATOM      8  N   GLY A   3      44.185  14.484  57.048  0.00  0.00    -0.295 N 
ATOM      9  H   GLY A   3      44.583  13.526  56.980  0.00  0.00    +0.150 HD
BRANCH   6  15
ATOM     10  C   LYS A   1      45.731  16.259  60.683  0.00  0.00    +0.241 C 
ATOM     11  N   PRO A   2      44.932  15.208  60.614  0.00  0.00    -0.272 N 
ATOM     12  CD  PRO A   2      44.011  14.724  61.700  0.00  0.00    +0.094 C 
ATOM     13  CG  PRO A   2      43.139  13.651  60.997  0.00  0.00    +0.024 C 
ATOM     14  CB  PRO A   2      44.042  13.110  59.812  0.00  0.00    +0.031 C 
ATOM     15  CA  PRO A   2      44.853  14.355  59.375  0.00  0.00    +0.152 C 
ATOM     16  O   LYS A   1      46.485  16.583  59.778  0.00  0.00    -0.273 OA
BRANCH  10  17
ATOM     17  CA  LYS A   1      45.706  17.101  61.981  0.00  0.00    +0.145 C 
BRANCH  17  18
ATOM     18  N   LYS A   1      46.372  16.270  63.031  0.00  0.00    -0.238 NA
ATOM     19  H   LYS A   1      47.283  15.818  62.812  0.00  0.00    +0.142 HD
ENDBRANCH  17  18
BRANCH  17  20
ATOM     20  CB  LYS A   1      46.485  18.429  61.789  0.00  0.00    +0.026 C 
BRANCH  20  21
ATOM     21  CG  LYS A   1      46.324  19.410  63.023  0.00  0.00    -0.000 C 
BRANCH  21  22
ATOM     22  CD  LYS A   1      44.823  19.880  63.216  0.00  0.00    -0.024 C 
BRANCH  22  23
ATOM     23  CE  LYS A   1      44.675  20.823  64.459  0.00  0.00    -0.086 C 
BRANCH  23  24
ATOM     24  NZ  LYS A   1      43.277  21.372  64.542  0.00  0.00    +0.380 N 
ATOM     25  HZ1 LYS A   1      43.199  21.994  65.372  0.00  0.00    -0.089 HD
ATOM     26  HZ2 LYS A   1      42.602  20.586  64.632  0.00  0.00    -0.089 HD
ATOM     27  HZ3 LYS A   1      43.067  21.914  63.680  0.00  0.00    -0.089 HD
ENDBRANCH  23  24
ENDBRANCH  22  23
ENDBRANCH  21  22
ENDBRANCH  20  21
ENDBRANCH  17  20
ENDBRANCH  10  17
ENDBRANCH   6  15
ENDBRANCH   5   8
ENDBRANCH   1   5
BRANCH   3  28
ATOM     28  CA  VAL A   4      39.878  15.902  55.258  0.00  0.00    +0.149 C 
BRANCH  28  29
ATOM     29  C   VAL A   4      39.573  15.799  53.764  0.00  0.00    +0.241 C 
ATOM     30  N   TYR A   5      38.723  14.850  53.501  0.00  0.00    -0.298 N 
ATOM     31  H   TYR A   5      38.342  14.308  54.303  0.00  0.00    +0.150 HD
ATOM     32  O   VAL A   4      40.093  16.553  52.961  0.00  0.00    -0.273 OA
BRANCH  30  33
ATOM     33  CA  TYR A   5      38.263  14.489  52.156  0.00  0.00    +0.141 C 
BRANCH  33  34
ATOM     34  C   TYR A   5      36.737  14.552  51.941  0.00  0.00    +0.227 C 
ATOM     35  O   TYR A   5      35.997  14.271  52.879  0.00  0.00    -0.286 OA
ENDBRANCH  33  34
BRANCH  33  36
ATOM     36  CB  TYR A   5      38.762  13.040  51.918  0.00  0.00    +0.054 C 
BRANCH  36  37
ATOM     37  CG  TYR A   5      40.290  12.975  52.148  0.00  0.00    -0.020 A 
ATOM     38  CD2 TYR A   5      40.878  12.737  53.407  0.00  0.00    -0.001 A 
ATOM     39  CE2 TYR A   5      42.265  12.750  53.544  0.00  0.00    +0.036 A 
ATOM     40  CZ  TYR A   5      43.072  13.001  52.414  0.00  0.00    +0.134 A 
ATOM     41  CE1 TYR A   5      42.475  13.226  51.187  0.00  0.00    +0.036 A 
ATOM     42  CD1 TYR A   5      41.108  13.211  51.062  0.00  0.00    -0.001 A 
BRANCH  40  43
ATOM     43  OH  TYR A   5      44.449  13.061  52.436  0.00  0.00    -0.506 OA
ATOM     44  HH  TYR A   5      44.811  12.195  52.750  0.00  0.00    +0.292 HD
ENDBRANCH  40  43
ENDBRANCH  36  37
ENDBRANCH  33  36
ENDBRANCH  30  33
ENDBRANCH  28  29
BRANCH  28  45
ATOM     45  CB  VAL A   4      39.312  17.236  55.867  0.00  0.00    +0.027 C 
ATOM     46  CG2 VAL A   4      39.876  17.476  57.326  0.00  0.00    +0.002 C 
ATOM     47  CG1 VAL A   4      37.773  17.135  55.934  0.00  0.00    +0.002 C 
ENDBRANCH  28  45
ENDBRANCH   3  28
TORSDOF 18
REMARK  Name = ../refined-set-2016/1c5s/1c5s_pocket.pdb
REMARK  137 active torsions:
REMARK  status: ('A' for Active; 'I' for Inactive)
REMARK    1  A    between atoms: _1  and  _5
REMARK    2  A    between atoms: _5  and  _6
REMARK    3  A    between atoms: _5  and  _8
REMARK    4  A    between atoms: _8  and  _9
REMARK    5  A    between atoms: _12  and  _14
REMARK    6  A    between atoms: _14  and  _15
REMARK    7  A    between atoms: _14  and  _17
REMARK    8  A    between atoms: _20  and  _22
REMARK    9  A    between atoms: _22  and  _23
REMARK   10  A    between atoms: _22  and  _25
REMARK   11  A    between atoms: _27  and  _29
REMARK   12  A    between atoms: _29  and  _30
REMARK   13  A    between atoms: _29  and  _32
REMARK   14  A    between atoms: _32  and  _33
REMARK   15  A    between atoms: _38  and  _40
REMARK   16  A    between atoms: _40  and  _41
REMARK   17  A    between atoms: _40  and  _43
REMARK   18  A    between atoms: _43  and  _44
REMARK   19  A    between atoms: _47  and  _49
REMARK   20  A    between atoms: _49  and  _50
REMARK   21  A    between atoms: _49  and  _52
REMARK   22  A    between atoms: _52  and  _53
REMARK   23  A    between atoms: _56  and  _58
REMARK   24  A    between atoms: _58  and  _59
REMARK   25  A    between atoms: _58  and  _61
REMARK   26  A    between atoms: _61  and  _62
REMARK   27  A    between atoms: _65  and  _67
REMARK   28  A    between atoms: _67  and  _68
REMARK   29  A    between atoms: _67  and  _70
REMARK   30  A    between atoms: _70  and  _71
REMARK   31  A    between atoms: _76  and  _78
REMARK   32  A    between atoms: _78  and  _79
REMARK   33  A    between atoms: _78  and  _81
REMARK   34  A    between atoms: _81  and  _82
REMARK   35  A    between atoms: _87  and  _88
REMARK   36  A    between atoms: _90  and  _92
REMARK   37  A    between atoms: _92  and  _93
REMARK   38  A    between atoms: _92  and  _95
REMARK   39  A    between atoms: _95  and  _96
REMARK   40  A    between atoms: _99  and  _101
REMARK   41  A    between atoms: _101  and  _102
REMARK   42  A    between atoms: _101  and  _104
REMARK   43  A    between atoms: _104  and  _105
REMARK   44  A    between atoms: _110  and  _111
REMARK   45  A    between atoms: _113  and  _115
REMARK   46  A    between atoms: _115  and  _116
REMARK   47  A    between atoms: _119  and  _121
REMARK   48  A    between atoms: _121  and  _122
REMARK   49  A    between atoms: _121  and  _124
REMARK   50  A    between atoms: _124  and  _125
REMARK   51  A    between atoms: _125  and  _126
REMARK   52  A    between atoms: _126  and  _127
REMARK   53  A    between atoms: _127  and  _128
REMARK   54  A    between atoms: _132  and  _134
REMARK   55  A    between atoms: _134  and  _135
REMARK   56  A    between atoms: _134  and  _137
REMARK   57  A    between atoms: _137  and  _138
REMARK   58  A    between atoms: _141  and  _143
REMARK   59  A    between atoms: _143  and  _144
REMARK   60  A    between atoms: _143  and  _146
REMARK   61  A    between atoms: _146  and  _147
REMARK   62  A    between atoms: _149  and  _151
REMARK   63  A    between atoms: _151  and  _152
REMARK   64  A    between atoms: _151  and  _154
REMARK   65  A    between atoms: _154  and  _155
REMARK   66  A    between atoms: _155  and  _265
REMARK   67  A    between atoms: _156  and  _158
REMARK   68  A    between atoms: _158  and  _159
REMARK   69  A    between atoms: _158  and  _161
REMARK   70  A    between atoms: _161  and  _162
REMARK   71  A    between atoms: _162  and  _163
REMARK   72  A    between atoms: _168  and  _170
REMARK   73  A    between atoms: _170  and  _171
REMARK   74  A    between atoms: _173  and  _175
REMARK   75  A    between atoms: _175  and  _176
REMARK   76  A    between atoms: _175  and  _178
REMARK   77  A    between atoms: _178  and  _179
REMARK   78  A    between atoms: _182  and  _184
REMARK   79  A    between atoms: _184  and  _185
REMARK   80  A    between atoms: _184  and  _187
REMARK   81  A    between atoms: _187  and  _188
REMARK   82  A    between atoms: _190  and  _192
REMARK   83  A    between atoms: _192  and  _193
REMARK   84  A    between atoms: _195  and  _197
REMARK   85  A    between atoms: _197  and  _198
REMARK   86  A    between atoms: _200  and  _202
REMARK   87  A    between atoms: _202  and  _203
REMARK   88  A    between atoms: _202  and  _205
REMARK   89  A    between atoms: _205  and  _206
REMARK   90  A    between atoms: _209  and  _211
REMARK   91  A    between atoms: _211  and  _212
REMARK   92  A    between atoms: _211  and  _214
REMARK   93  A    between atoms: _217  and  _219
REMARK   94  A    between atoms: _219  and  _220
REMARK   95  A    between atoms: _219  and  _222
REMARK   96  A    between atoms: _222  and  _223
REMARK   97  A    between atoms: _225  and  _227
REMARK   98  A    between atoms: _227  and  _228
REMARK   99  A    between atoms: _227  and  _230
REMARK  100  A    between atoms: _230  and  _231
REMARK  101  A    between atoms: _241  and  _243
REMARK  102  A    between atoms: _243  and  _244
REMARK  103  A    between atoms: _246  and  _248
REMARK  104  A    between atoms: _248  and  _249
REMARK  105  A    between atoms: _248  and  _251
REMARK  106  A    between atoms: _251  and  _252
REMARK  107  A    between atoms: _254  and  _256
REMARK  108  A    between atoms: _256  and  _257
REMARK  109  A    between atoms: _259  and  _261
REMARK  110  A    between atoms: _261  and  _262
REMARK  111  A    between atoms: _261  and  _264
REMARK  112  A    between atoms: _264  and  _265
REMARK  113  A    between atoms: _266  and  _268
REMARK  114  A    between atoms: _268  and  _269
REMARK  115  A    between atoms: _272  and  _274
REMARK  116  A    between atoms: _274  and  _275
REMARK  117  A    between atoms: _274  and  _277
REMARK  118  A    between atoms: _277  and  _278
REMARK  119  A    between atoms: _278  and  _279
REMARK  120  A    between atoms: _284  and  _286
REMARK  121  A    between atoms: _286  and  _287
REMARK  122  A    between atoms: _286  and  _289
REMARK  123  A    between atoms: _289  and  _290
REMARK  124  A    between atoms: _290  and  _291
REMARK  125  A    between atoms: _291  and  _292
REMARK  126  A    between atoms: _292  and  _293
REMARK  127  A    between atoms: _298  and  _299
REMARK  128  A    between atoms: _304  and  _306
REMARK  129  A    between atoms: _306  and  _307
REMARK  130  A    between atoms: _309  and  _311
REMARK  131  A    between atoms: _311  and  _312
REMARK  132  A    between atoms: _311  and  _314
REMARK  133  A    between atoms: _317  and  _319
REMARK  134  A    between atoms: _319  and  _320
REMARK  135  A    between atoms: _319  and  _322
REMARK  136  A    between atoms: _322  and  _323
REMARK  137  A    between atoms: _328  and  _329
REMARK                            x       y       z     vdW  Elec       q    Type
REMARK                         _______ _______ _______ _____ _____    ______ ____
ROOT
ATOM      1  O   HOH     1      48.344  18.382  58.568  0.00  0.00    +0.000 OA
ENDROOT
TORSDOF 0
REMARK  Name = ../refined-set-2016/1c5s/1c5s_pocket.pdb
REMARK  137 active torsions:
REMARK  status: ('A' for Active; 'I' for Inactive)
REMARK    1  A    between atoms: _1  and  _5
REMARK    2  A    between atoms: _5  and  _6
REMARK    3  A    between atoms: _5  and  _8
REMARK    4  A    between atoms: _8  and  _9
REMARK    5  A    between atoms: _12  and  _14
REMARK    6  A    between atoms: _14  and  _15
REMARK    7  A    between atoms: _14  and  _17
REMARK    8  A    between atoms: _20  and  _22
REMARK    9  A    between atoms: _22  and  _23
REMARK   10  A    between atoms: _22  and  _25
REMARK   11  A    between atoms: _27  and  _29
REMARK   12  A    between atoms: _29  and  _30
REMARK   13  A    between atoms: _29  and  _32
REMARK   14  A    between atoms: _32  and  _33
REMARK   15  A    between atoms: _38  and  _40
REMARK   16  A    between atoms: _40  and  _41
REMARK   17  A    between atoms: _40  and  _43
REMARK   18  A    between atoms: _43  and  _44
REMARK   19  A    between atoms: _47  and  _49
REMARK   20  A    between atoms: _49  and  _50
REMARK   21  A    between atoms: _49  and  _52
REMARK   22  A    between atoms: _52  and  _53
REMARK   23  A    between atoms: _56  and  _58
REMARK   24  A    between atoms: _58  and  _59
REMARK   25  A    between atoms: _58  and  _61
REMARK   26  A    between atoms: _61  and  _62
REMARK   27  A    between atoms: _65  and  _67
REMARK   28  A    between atoms: _67  and  _68
REMARK   29  A    between atoms: _67  and  _70
REMARK   30  A    between atoms: _70  and  _71
REMARK   31  A    between atoms: _76  and  _78
REMARK   32  A    between atoms: _78  and  _79
REMARK   33  A    between atoms: _78  and  _81
REMARK   34  A    between atoms: _81  and  _82
REMARK   35  A    between atoms: _87  and  _88
REMARK   36  A    between atoms: _90  and  _92
REMARK   37  A    between atoms: _92  and  _93
REMARK   38  A    between atoms: _92  and  _95
REMARK   39  A    between atoms: _95  and  _96
REMARK   40  A    between atoms: _99  and  _101
REMARK   41  A    between atoms: _101  and  _102
REMARK   42  A    between atoms: _101  and  _104
REMARK   43  A    between atoms: _104  and  _105
REMARK   44  A    between atoms: _110  and  _111
REMARK   45  A    between atoms: _113  and  _115
REMARK   46  A    between atoms: _115  and  _116
REMARK   47  A    between atoms: _119  and  _121
REMARK   48  A    between atoms: _121  and  _122
REMARK   49  A    between atoms: _121  and  _124
REMARK   50  A    between atoms: _124  and  _125
REMARK   51  A    between atoms: _125  and  _126
REMARK   52  A    between atoms: _126  and  _127
REMARK   53  A    between atoms: _127  and  _128
REMARK   54  A    between atoms: _132  and  _134
REMARK   55  A    between atoms: _134  and  _135
REMARK   56  A    between atoms: _134  and  _137
REMARK   57  A    between atoms: _137  and  _138
REMARK   58  A    between atoms: _141  and  _143
REMARK   59  A    between atoms: _143  and  _144
REMARK   60  A    between atoms: _143  and  _146
REMARK   61  A    between atoms: _146  and  _147
REMARK   62  A    between atoms: _149  and  _151
REMARK   63  A    between atoms: _151  and  _152
REMARK   64  A    between atoms: _151  and  _154
REMARK   65  A    between atoms: _154  and  _155
REMARK   66  A    between atoms: _155  and  _265
REMARK   67  A    between atoms: _156  and  _158
REMARK   68  A    between atoms: _158  and  _159
REMARK   69  A    between atoms: _158  and  _161
REMARK   70  A    between atoms: _161  and  _162
REMARK   71  A    between atoms: _162  and  _163
REMARK   72  A    between atoms: _168  and  _170
REMARK   73  A    between atoms: _170  and  _171
REMARK   74  A    between atoms: _173  and  _175
REMARK   75  A    between atoms: _175  and  _176
REMARK   76  A    between atoms: _175  and  _178
REMARK   77  A    between atoms: _178  and  _179
REMARK   78  A    between atoms: _182  and  _184
REMARK   79  A    between atoms: _184  and  _185
REMARK   80  A    between atoms: _184  and  _187
REMARK   81  A    between atoms: _187  and  _188
REMARK   82  A    between atoms: _190  and  _192
REMARK   83  A    between atoms: _192  and  _193
REMARK   84  A    between atoms: _195  and  _197
REMARK   85  A    between atoms: _197  and  _198
REMARK   86  A    between atoms: _200  and  _202
REMARK   87  A    between atoms: _202  and  _203
REMARK   88  A    between atoms: _202  and  _205
REMARK   89  A    between atoms: _205  and  _206
REMARK   90  A    between atoms: _209  and  _211
REMARK   91  A    between atoms: _211  and  _212
REMARK   92  A    between atoms: _211  and  _214
REMARK   93  A    between atoms: _217  and  _219
REMARK   94  A    between atoms: _219  and  _220
REMARK   95  A    between atoms: _219  and  _222
REMARK   96  A    between atoms: _222  and  _223
REMARK   97  A    between atoms: _225  and  _227
REMARK   98  A    between atoms: _227  and  _228
REMARK   99  A    between atoms: _227  and  _230
REMARK  100  A    between atoms: _230  and  _231
REMARK  101  A    between atoms: _241  and  _243
REMARK  102  A    between atoms: _243  and  _244
REMARK  103  A    between atoms: _246  and  _248
REMARK  104  A    between atoms: _248  and  _249
REMARK  105  A    between atoms: _248  and  _251
REMARK  106  A    between atoms: _251  and  _252
REMARK  107  A    between atoms: _254  and  _256
REMARK  108  A    between atoms: _256  and  _257
REMARK  109  A    between atoms: _259  and  _261
REMARK  110  A    between atoms: _261  and  _262
REMARK  111  A    between atoms: _261  and  _264
REMARK  112  A    between atoms: _264  and  _265
REMARK  113  A    between atoms: _266  and  _268
REMARK  114  A    between atoms: _268  and  _269
REMARK  115  A    between atoms: _272  and  _274
REMARK  116  A    between atoms: _274  and  _275
REMARK  117  A    between atoms: _274  and  _277
REMARK  118  A    between atoms: _277  and  _278
REMARK  119  A    between atoms: _278  and  _279
REMARK  120  A    between atoms: _284  and  _286
REMARK  121  A    between atoms: _286  and  _287
REMARK  122  A    between atoms: _286  and  _289
REMARK  123  A    between atoms: _289  and  _290
REMARK  124  A    between atoms: _290  and  _291
REMARK  125  A    between atoms: _291  and  _292
REMARK  126  A    between atoms: _292  and  _293
REMARK  127  A    between atoms: _298  and  _299
REMARK  128  A    between atoms: _304  and  _306
REMARK  129  A    between atoms: _306  and  _307
REMARK  130  A    between atoms: _309  and  _311
REMARK  131  A    between atoms: _311  and  _312
REMARK  132  A    between atoms: _311  and  _314
REMARK  133  A    between atoms: _317  and  _319
REMARK  134  A    between atoms: _319  and  _320
REMARK  135  A    between atoms: _319  and  _322
REMARK  136  A    between atoms: _322  and  _323
REMARK  137  A    between atoms: _328  and  _329
REMARK                            x       y       z     vdW  Elec       q    Type
REMARK                         _______ _______ _______ _____ _____    ______ ____
ROOT
ATOM      1  O   HOH     1      48.434  14.583  59.100  0.00  0.00    +0.000 OA
ENDROOT
TORSDOF 0
REMARK  Name = ../refined-set-2016/1c5s/1c5s_pocket.pdb
REMARK  137 active torsions:
REMARK  status: ('A' for Active; 'I' for Inactive)
REMARK    1  A    between atoms: _1  and  _5
REMARK    2  A    between atoms: _5  and  _6
REMARK    3  A    between atoms: _5  and  _8
REMARK    4  A    between atoms: _8  and  _9
REMARK    5  A    between atoms: _12  and  _14
REMARK    6  A    between atoms: _14  and  _15
REMARK    7  A    between atoms: _14  and  _17
REMARK    8  A    between atoms: _20  and  _22
REMARK    9  A    between atoms: _22  and  _23
REMARK   10  A    between atoms: _22  and  _25
REMARK   11  A    between atoms: _27  and  _29
REMARK   12  A    between atoms: _29  and  _30
REMARK   13  A    between atoms: _29  and  _32
REMARK   14  A    between atoms: _32  and  _33
REMARK   15  A    between atoms: _38  and  _40
REMARK   16  A    between atoms: _40  and  _41
REMARK   17  A    between atoms: _40  and  _43
REMARK   18  A    between atoms: _43  and  _44
REMARK   19  A    between atoms: _47  and  _49
REMARK   20  A    between atoms: _49  and  _50
REMARK   21  A    between atoms: _49  and  _52
REMARK   22  A    between atoms: _52  and  _53
REMARK   23  A    between atoms: _56  and  _58
REMARK   24  A    between atoms: _58  and  _59
REMARK   25  A    between atoms: _58  and  _61
REMARK   26  A    between atoms: _61  and  _62
REMARK   27  A    between atoms: _65  and  _67
REMARK   28  A    between atoms: _67  and  _68
REMARK   29  A    between atoms: _67  and  _70
REMARK   30  A    between atoms: _70  and  _71
REMARK   31  A    between atoms: _76  and  _78
REMARK   32  A    between atoms: _78  and  _79
REMARK   33  A    between atoms: _78  and  _81
REMARK   34  A    between atoms: _81  and  _82
REMARK   35  A    between atoms: _87  and  _88
REMARK   36  A    between atoms: _90  and  _92
REMARK   37  A    between atoms: _92  and  _93
REMARK   38  A    between atoms: _92  and  _95
REMARK   39  A    between atoms: _95  and  _96
REMARK   40  A    between atoms: _99  and  _101
REMARK   41  A    between atoms: _101  and  _102
REMARK   42  A    between atoms: _101  and  _104
REMARK   43  A    between atoms: _104  and  _105
REMARK   44  A    between atoms: _110  and  _111
REMARK   45  A    between atoms: _113  and  _115
REMARK   46  A    between atoms: _115  and  _116
REMARK   47  A    between atoms: _119  and  _121
REMARK   48  A    between atoms: _121  and  _122
REMARK   49  A    between atoms: _121  and  _124
REMARK   50  A    between atoms: _124  and  _125
REMARK   51  A    between atoms: _125  and  _126
REMARK   52  A    between atoms: _126  and  _127
REMARK   53  A    between atoms: _127  and  _128
REMARK   54  A    between atoms: _132  and  _134
REMARK   55  A    between atoms: _134  and  _135
REMARK   56  A    between atoms: _134  and  _137
REMARK   57  A    between atoms: _137  and  _138
REMARK   58  A    between atoms: _141  and  _143
REMARK   59  A    between atoms: _143  and  _144
REMARK   60  A    between atoms: _143  and  _146
REMARK   61  A    between atoms: _146  and  _147
REMARK   62  A    between atoms: _149  and  _151
REMARK   63  A    between atoms: _151  and  _152
REMARK   64  A    between atoms: _151  and  _154
REMARK   65  A    between atoms: _154  and  _155
REMARK   66  A    between atoms: _155  and  _265
REMARK   67  A    between atoms: _156  and  _158
REMARK   68  A    between atoms: _158  and  _159
REMARK   69  A    between atoms: _158  and  _161
REMARK   70  A    between atoms: _161  and  _162
REMARK   71  A    between atoms: _162  and  _163
REMARK   72  A    between atoms: _168  and  _170
REMARK   73  A    between atoms: _170  and  _171
REMARK   74  A    between atoms: _173  and  _175
REMARK   75  A    between atoms: _175  and  _176
REMARK   76  A    between atoms: _175  and  _178
REMARK   77  A    between atoms: _178  and  _179
REMARK   78  A    between atoms: _182  and  _184
REMARK   79  A    between atoms: _184  and  _185
REMARK   80  A    between atoms: _184  and  _187
REMARK   81  A    between atoms: _187  and  _188
REMARK   82  A    between atoms: _190  and  _192
REMARK   83  A    between atoms: _192  and  _193
REMARK   84  A    between atoms: _195  and  _197
REMARK   85  A    between atoms: _197  and  _198
REMARK   86  A    between atoms: _200  and  _202
REMARK   87  A    between atoms: _202  and  _203
REMARK   88  A    between atoms: _202  and  _205
REMARK   89  A    between atoms: _205  and  _206
REMARK   90  A    between atoms: _209  and  _211
REMARK   91  A    between atoms: _211  and  _212
REMARK   92  A    between atoms: _211  and  _214
REMARK   93  A    between atoms: _217  and  _219
REMARK   94  A    between atoms: _219  and  _220
REMARK   95  A    between atoms: _219  and  _222
REMARK   96  A    between atoms: _222  and  _223
REMARK   97  A    between atoms: _225  and  _227
REMARK   98  A    between atoms: _227  and  _228
REMARK   99  A    between atoms: _227  and  _230
REMARK  100  A    between atoms: _230  and  _231
REMARK  101  A    between atoms: _241  and  _243
REMARK  102  A    between atoms: _243  and  _244
REMARK  103  A    between atoms: _246  and  _248
REMARK  104  A    between atoms: _248  and  _249
REMARK  105  A    between atoms: _248  and  _251
REMARK  106  A    between atoms: _251  and  _252
REMARK  107  A    between atoms: _254  and  _256
REMARK  108  A    between atoms: _256  and  _257
REMARK  109  A    between atoms: _259  and  _261
REMARK  110  A    between atoms: _261  and  _262
REMARK  111  A    between atoms: _261  and  _264
REMARK  112  A    between atoms: _264  and  _265
REMARK  113  A    between atoms: _266  and  _268
REMARK  114  A    between atoms: _268  and  _269
REMARK  115  A    between atoms: _272  and  _274
REMARK  116  A    between atoms: _274  and  _275
REMARK  117  A    between atoms: _274  and  _277
REMARK  118  A    between atoms: _277  and  _278
REMARK  119  A    between atoms: _278  and  _279
REMARK  120  A    between atoms: _284  and  _286
REMARK  121  A    between atoms: _286  and  _287
REMARK  122  A    between atoms: _286  and  _289
REMARK  123  A    between atoms: _289  and  _290
REMARK  124  A    between atoms: _290  and  _291
REMARK  125  A    between atoms: _291  and  _292
REMARK  126  A    between atoms: _292  and  _293
REMARK  127  A    between atoms: _298  and  _299
REMARK  128  A    between atoms: _304  and  _306
REMARK  129  A    between atoms: _306  and  _307
REMARK  130  A    between atoms: _309  and  _311
REMARK  131  A    between atoms: _311  and  _312
REMARK  132  A    between atoms: _311  and  _314
REMARK  133  A    between atoms: _317  and  _319
REMARK  134  A    between atoms: _319  and  _320
REMARK  135  A    between atoms: _319  and  _322
REMARK  136  A    between atoms: _322  and  _323
REMARK  137  A    between atoms: _328  and  _329
REMARK                            x       y       z     vdW  Elec       q    Type
REMARK                         _______ _______ _______ _____ _____    ______ ____
ROOT
ATOM      1  O   HOH     1      45.738  12.137  54.628  0.00  0.00    +0.000 OA
ENDROOT
TORSDOF 0
REMARK  Name = ../refined-set-2016/1c5s/1c5s_pocket.pdb
REMARK  137 active torsions:
REMARK  status: ('A' for Active; 'I' for Inactive)
REMARK    1  A    between atoms: _1  and  _5
REMARK    2  A    between atoms: _5  and  _6
REMARK    3  A    between atoms: _5  and  _8
REMARK    4  A    between atoms: _8  and  _9
REMARK    5  A    between atoms: _12  and  _14
REMARK    6  A    between atoms: _14  and  _15
REMARK    7  A    between atoms: _14  and  _17
REMARK    8  A    between atoms: _20  and  _22
REMARK    9  A    between atoms: _22  and  _23
REMARK   10  A    between atoms: _22  and  _25
REMARK   11  A    between atoms: _27  and  _29
REMARK   12  A    between atoms: _29  and  _30
REMARK   13  A    between atoms: _29  and  _32
REMARK   14  A    between atoms: _32  and  _33
REMARK   15  A    between atoms: _38  and  _40
REMARK   16  A    between atoms: _40  and  _41
REMARK   17  A    between atoms: _40  and  _43
REMARK   18  A    between atoms: _43  and  _44
REMARK   19  A    between atoms: _47  and  _49
REMARK   20  A    between atoms: _49  and  _50
REMARK   21  A    between atoms: _49  and  _52
REMARK   22  A    between atoms: _52  and  _53
REMARK   23  A    between atoms: _56  and  _58
REMARK   24  A    between atoms: _58  and  _59
REMARK   25  A    between atoms: _58  and  _61
REMARK   26  A    between atoms: _61  and  _62
REMARK   27  A    between atoms: _65  and  _67
REMARK   28  A    between atoms: _67  and  _68
REMARK   29  A    between atoms: _67  and  _70
REMARK   30  A    between atoms: _70  and  _71
REMARK   31  A    between atoms: _76  and  _78
REMARK   32  A    between atoms: _78  and  _79
REMARK   33  A    between atoms: _78  and  _81
REMARK   34  A    between atoms: _81  and  _82
REMARK   35  A    between atoms: _87  and  _88
REMARK   36  A    between atoms: _90  and  _92
REMARK   37  A    between atoms: _92  and  _93
REMARK   38  A    between atoms: _92  and  _95
REMARK   39  A    between atoms: _95  and  _96
REMARK   40  A    between atoms: _99  and  _101
REMARK   41  A    between atoms: _101  and  _102
REMARK   42  A    between atoms: _101  and  _104
REMARK   43  A    between atoms: _104  and  _105
REMARK   44  A    between atoms: _110  and  _111
REMARK   45  A    between atoms: _113  and  _115
REMARK   46  A    between atoms: _115  and  _116
REMARK   47  A    between atoms: _119  and  _121
REMARK   48  A    between atoms: _121  and  _122
REMARK   49  A    between atoms: _121  and  _124
REMARK   50  A    between atoms: _124  and  _125
REMARK   51  A    between atoms: _125  and  _126
REMARK   52  A    between atoms: _126  and  _127
REMARK   53  A    between atoms: _127  and  _128
REMARK   54  A    between atoms: _132  and  _134
REMARK   55  A    between atoms: _134  and  _135
REMARK   56  A    between atoms: _134  and  _137
REMARK   57  A    between atoms: _137  and  _138
REMARK   58  A    between atoms: _141  and  _143
REMARK   59  A    between atoms: _143  and  _144
REMARK   60  A    between atoms: _143  and  _146
REMARK   61  A    between atoms: _146  and  _147
REMARK   62  A    between atoms: _149  and  _151
REMARK   63  A    between atoms: _151  and  _152
REMARK   64  A    between atoms: _151  and  _154
REMARK   65  A    between atoms: _154  and  _155
REMARK   66  A    between atoms: _155  and  _265
REMARK   67  A    between atoms: _156  and  _158
REMARK   68  A    between atoms: _158  and  _159
REMARK   69  A    between atoms: _158  and  _161
REMARK   70  A    between atoms: _161  and  _162
REMARK   71  A    between atoms: _162  and  _163
REMARK   72  A    between atoms: _168  and  _170
REMARK   73  A    between atoms: _170  and  _171
REMARK   74  A    between atoms: _173  and  _175
REMARK   75  A    between atoms: _175  and  _176
REMARK   76  A    between atoms: _175  and  _178
REMARK   77  A    between atoms: _178  and  _179
REMARK   78  A    between atoms: _182  and  _184
REMARK   79  A    between atoms: _184  and  _185
REMARK   80  A    between atoms: _184  and  _187
REMARK   81  A    between atoms: _187  and  _188
REMARK   82  A    between atoms: _190  and  _192
REMARK   83  A    between atoms: _192  and  _193
REMARK   84  A    between atoms: _195  and  _197
REMARK   85  A    between atoms: _197  and  _198
REMARK   86  A    between atoms: _200  and  _202
REMARK   87  A    between atoms: _202  and  _203
REMARK   88  A    between atoms: _202  and  _205
REMARK   89  A    between atoms: _205  and  _206
REMARK   90  A    between atoms: _209  and  _211
REMARK   91  A    between atoms: _211  and  _212
REMARK   92  A    between atoms: _211  and  _214
REMARK   93  A    between atoms: _217  and  _219
REMARK   94  A    between atoms: _219  and  _220
REMARK   95  A    between atoms: _219  and  _222
REMARK   96  A    between atoms: _222  and  _223
REMARK   97  A    between atoms: _225  and  _227
REMARK   98  A    between atoms: _227  and  _228
REMARK   99  A    between atoms: _227  and  _230
REMARK  100  A    between atoms: _230  and  _231
REMARK  101  A    between atoms: _241  and  _243
REMARK  102  A    between atoms: _243  and  _244
REMARK  103  A    between atoms: _246  and  _248
REMARK  104  A    between atoms: _248  and  _249
REMARK  105  A    between atoms: _248  and  _251
REMARK  106  A    between atoms: _251  and  _252
REMARK  107  A    between atoms: _254  and  _256
REMARK  108  A    between atoms: _256  and  _257
REMARK  109  A    between atoms: _259  and  _261
REMARK  110  A    between atoms: _261  and  _262
REMARK  111  A    between atoms: _261  and  _264
REMARK  112  A    between atoms: _264  and  _265
REMARK  113  A    between atoms: _266  and  _268
REMARK  114  A    between atoms: _268  and  _269
REMARK  115  A    between atoms: _272  and  _274
REMARK  116  A    between atoms: _274  and  _275
REMARK  117  A    between atoms: _274  and  _277
REMARK  118  A    between atoms: _277  and  _278
REMARK  119  A    between atoms: _278  and  _279
REMARK  120  A    between atoms: _284  and  _286
REMARK  121  A    between atoms: _286  and  _287
REMARK  122  A    between atoms: _286  and  _289
REMARK  123  A    between atoms: _289  and  _290
REMARK  124  A    between atoms: _290  and  _291
REMARK  125  A    between atoms: _291  and  _292
REMARK  126  A    between atoms: _292  and  _293
REMARK  127  A    between atoms: _298  and  _299
REMARK  128  A    between atoms: _304  and  _306
REMARK  129  A    between atoms: _306  and  _307
REMARK  130  A    between atoms: _309  and  _311
REMARK  131  A    between atoms: _311  and  _312
REMARK  132  A    between atoms: _311  and  _314
REMARK  133  A    between atoms: _317  and  _319
REMARK  134  A    between atoms: _319  and  _320
REMARK  135  A    between atoms: _319  and  _322
REMARK  136  A    between atoms: _322  and  _323
REMARK  137  A    between atoms: _328  and  _329
REMARK                            x       y       z     vdW  Elec       q    Type
REMARK                         _______ _______ _______ _____ _____    ______ ____
ROOT
ATOM      1  O   HOH     1      47.706  12.238  57.826  0.00  0.00    +0.000 OA
ENDROOT
TORSDOF 0
REMARK  Name = ../refined-set-2016/1c5s/1c5s_pocket.pdb
REMARK  137 active torsions:
REMARK  status: ('A' for Active; 'I' for Inactive)
REMARK    1  A    between atoms: _1  and  _5
REMARK    2  A    between atoms: _5  and  _6
REMARK    3  A    between atoms: _5  and  _8
REMARK    4  A    between atoms: _8  and  _9
REMARK    5  A    between atoms: _12  and  _14
REMARK    6  A    between atoms: _14  and  _15
REMARK    7  A    between atoms: _14  and  _17
REMARK    8  A    between atoms: _20  and  _22
REMARK    9  A    between atoms: _22  and  _23
REMARK   10  A    between atoms: _22  and  _25
REMARK   11  A    between atoms: _27  and  _29
REMARK   12  A    between atoms: _29  and  _30
REMARK   13  A    between atoms: _29  and  _32
REMARK   14  A    between atoms: _32  and  _33
REMARK   15  A    between atoms: _38  and  _40
REMARK   16  A    between atoms: _40  and  _41
REMARK   17  A    between atoms: _40  and  _43
REMARK   18  A    between atoms: _43  and  _44
REMARK   19  A    between atoms: _47  and  _49
REMARK   20  A    between atoms: _49  and  _50
REMARK   21  A    between atoms: _49  and  _52
REMARK   22  A    between atoms: _52  and  _53
REMARK   23  A    between atoms: _56  and  _58
REMARK   24  A    between atoms: _58  and  _59
REMARK   25  A    between atoms: _58  and  _61
REMARK   26  A    between atoms: _61  and  _62
REMARK   27  A    between atoms: _65  and  _67
REMARK   28  A    between atoms: _67  and  _68
REMARK   29  A    between atoms: _67  and  _70
REMARK   30  A    between atoms: _70  and  _71
REMARK   31  A    between atoms: _76  and  _78
REMARK   32  A    between atoms: _78  and  _79
REMARK   33  A    between atoms: _78  and  _81
REMARK   34  A    between atoms: _81  and  _82
REMARK   35  A    between atoms: _87  and  _88
REMARK   36  A    between atoms: _90  and  _92
REMARK   37  A    between atoms: _92  and  _93
REMARK   38  A    between atoms: _92  and  _95
REMARK   39  A    between atoms: _95  and  _96
REMARK   40  A    between atoms: _99  and  _101
REMARK   41  A    between atoms: _101  and  _102
REMARK   42  A    between atoms: _101  and  _104
REMARK   43  A    between atoms: _104  and  _105
REMARK   44  A    between atoms: _110  and  _111
REMARK   45  A    between atoms: _113  and  _115
REMARK   46  A    between atoms: _115  and  _116
REMARK   47  A    between atoms: _119  and  _121
REMARK   48  A    between atoms: _121  and  _122
REMARK   49  A    between atoms: _121  and  _124
REMARK   50  A    between atoms: _124  and  _125
REMARK   51  A    between atoms: _125  and  _126
REMARK   52  A    between atoms: _126  and  _127
REMARK   53  A    between atoms: _127  and  _128
REMARK   54  A    between atoms: _132  and  _134
REMARK   55  A    between atoms: _134  and  _135
REMARK   56  A    between atoms: _134  and  _137
REMARK   57  A    between atoms: _137  and  _138
REMARK   58  A    between atoms: _141  and  _143
REMARK   59  A    between atoms: _143  and  _144
REMARK   60  A    between atoms: _143  and  _146
REMARK   61  A    between atoms: _146  and  _147
REMARK   62  A    between atoms: _149  and  _151
REMARK   63  A    between atoms: _151  and  _152
REMARK   64  A    between atoms: _151  and  _154
REMARK   65  A    between atoms: _154  and  _155
REMARK   66  A    between atoms: _155  and  _265
REMARK   67  A    between atoms: _156  and  _158
REMARK   68  A    between atoms: _158  and  _159
REMARK   69  A    between atoms: _158  and  _161
REMARK   70  A    between atoms: _161  and  _162
REMARK   71  A    between atoms: _162  and  _163
REMARK   72  A    between atoms: _168  and  _170
REMARK   73  A    between atoms: _170  and  _171
REMARK   74  A    between atoms: _173  and  _175
REMARK   75  A    between atoms: _175  and  _176
REMARK   76  A    between atoms: _175  and  _178
REMARK   77  A    between atoms: _178  and  _179
REMARK   78  A    between atoms: _182  and  _184
REMARK   79  A    between atoms: _184  and  _185
REMARK   80  A    between atoms: _184  and  _187
REMARK   81  A    between atoms: _187  and  _188
REMARK   82  A    between atoms: _190  and  _192
REMARK   83  A    between atoms: _192  and  _193
REMARK   84  A    between atoms: _195  and  _197
REMARK   85  A    between atoms: _197  and  _198
REMARK   86  A    between atoms: _200  and  _202
REMARK   87  A    between atoms: _202  and  _203
REMARK   88  A    between atoms: _202  and  _205
REMARK   89  A    between atoms: _205  and  _206
REMARK   90  A    between atoms: _209  and  _211
REMARK   91  A    between atoms: _211  and  _212
REMARK   92  A    between atoms: _211  and  _214
REMARK   93  A    between atoms: _217  and  _219
REMARK   94  A    between atoms: _219  and  _220
REMARK   95  A    between atoms: _219  and  _222
REMARK   96  A    between atoms: _222  and  _223
REMARK   97  A    between atoms: _225  and  _227
REMARK   98  A    between atoms: _227  and  _228
REMARK   99  A    between atoms: _227  and  _230
REMARK  100  A    between atoms: _230  and  _231
REMARK  101  A    between atoms: _241  and  _243
REMARK  102  A    between atoms: _243  and  _244
REMARK  103  A    between atoms: _246  and  _248
REMARK  104  A    between atoms: _248  and  _249
REMARK  105  A    between atoms: _248  and  _251
REMARK  106  A    between atoms: _251  and  _252
REMARK  107  A    between atoms: _254  and  _256
REMARK  108  A    between atoms: _256  and  _257
REMARK  109  A    between atoms: _259  and  _261
REMARK  110  A    between atoms: _261  and  _262
REMARK  111  A    between atoms: _261  and  _264
REMARK  112  A    between atoms: _264  and  _265
REMARK  113  A    between atoms: _266  and  _268
REMARK  114  A    between atoms: _268  and  _269
REMARK  115  A    between atoms: _272  and  _274
REMARK  116  A    between atoms: _274  and  _275
REMARK  117  A    between atoms: _274  and  _277
REMARK  118  A    between atoms: _277  and  _278
REMARK  119  A    between atoms: _278  and  _279
REMARK  120  A    between atoms: _284  and  _286
REMARK  121  A    between atoms: _286  and  _287
REMARK  122  A    between atoms: _286  and  _289
REMARK  123  A    between atoms: _289  and  _290
REMARK  124  A    between atoms: _290  and  _291
REMARK  125  A    between atoms: _291  and  _292
REMARK  126  A    between atoms: _292  and  _293
REMARK  127  A    between atoms: _298  and  _299
REMARK  128  A    between atoms: _304  and  _306
REMARK  129  A    between atoms: _306  and  _307
REMARK  130  A    between atoms: _309  and  _311
REMARK  131  A    between atoms: _311  and  _312
REMARK  132  A    between atoms: _311  and  _314
REMARK  133  A    between atoms: _317  and  _319
REMARK  134  A    between atoms: _319  and  _320
REMARK  135  A    between atoms: _319  and  _322
REMARK  136  A    between atoms: _322  and  _323
REMARK  137  A    between atoms: _328  and  _329
REMARK                            x       y       z     vdW  Elec       q    Type
REMARK                         _______ _______ _______ _____ _____    ______ ____
ROOT
ATOM      1  O   HOH     1      53.366  23.469  54.135  0.00  0.00    +0.000 OA
ENDROOT
TORSDOF 0
REMARK  Name = ../refined-set-2016/1c5s/1c5s_pocket.pdb
REMARK  137 active torsions:
REMARK  status: ('A' for Active; 'I' for Inactive)
REMARK    1  A    between atoms: _1  and  _5
REMARK    2  A    between atoms: _5  and  _6
REMARK    3  A    between atoms: _5  and  _8
REMARK    4  A    between atoms: _8  and  _9
REMARK    5  A    between atoms: _12  and  _14
REMARK    6  A    between atoms: _14  and  _15
REMARK    7  A    between atoms: _14  and  _17
REMARK    8  A    between atoms: _20  and  _22
REMARK    9  A    between atoms: _22  and  _23
REMARK   10  A    between atoms: _22  and  _25
REMARK   11  A    between atoms: _27  and  _29
REMARK   12  A    between atoms: _29  and  _30
REMARK   13  A    between atoms: _29  and  _32
REMARK   14  A    between atoms: _32  and  _33
REMARK   15  A    between atoms: _38  and  _40
REMARK   16  A    between atoms: _40  and  _41
REMARK   17  A    between atoms: _40  and  _43
REMARK   18  A    between atoms: _43  and  _44
REMARK   19  A    between atoms: _47  and  _49
REMARK   20  A    between atoms: _49  and  _50
REMARK   21  A    between atoms: _49  and  _52
REMARK   22  A    between atoms: _52  and  _53
REMARK   23  A    between atoms: _56  and  _58
REMARK   24  A    between atoms: _58  and  _59
REMARK   25  A    between atoms: _58  and  _61
REMARK   26  A    between atoms: _61  and  _62
REMARK   27  A    between atoms: _65  and  _67
REMARK   28  A    between atoms: _67  and  _68
REMARK   29  A    between atoms: _67  and  _70
REMARK   30  A    between atoms: _70  and  _71
REMARK   31  A    between atoms: _76  and  _78
REMARK   32  A    between atoms: _78  and  _79
REMARK   33  A    between atoms: _78  and  _81
REMARK   34  A    between atoms: _81  and  _82
REMARK   35  A    between atoms: _87  and  _88
REMARK   36  A    between atoms: _90  and  _92
REMARK   37  A    between atoms: _92  and  _93
REMARK   38  A    between atoms: _92  and  _95
REMARK   39  A    between atoms: _95  and  _96
REMARK   40  A    between atoms: _99  and  _101
REMARK   41  A    between atoms: _101  and  _102
REMARK   42  A    between atoms: _101  and  _104
REMARK   43  A    between atoms: _104  and  _105
REMARK   44  A    between atoms: _110  and  _111
REMARK   45  A    between atoms: _113  and  _115
REMARK   46  A    between atoms: _115  and  _116
REMARK   47  A    between atoms: _119  and  _121
REMARK   48  A    between atoms: _121  and  _122
REMARK   49  A    between atoms: _121  and  _124
REMARK   50  A    between atoms: _124  and  _125
REMARK   51  A    between atoms: _125  and  _126
REMARK   52  A    between atoms: _126  and  _127
REMARK   53  A    between atoms: _127  and  _128
REMARK   54  A    between atoms: _132  and  _134
REMARK   55  A    between atoms: _134  and  _135
REMARK   56  A    between atoms: _134  and  _137
REMARK   57  A    between atoms: _137  and  _138
REMARK   58  A    between atoms: _141  and  _143
REMARK   59  A    between atoms: _143  and  _144
REMARK   60  A    between atoms: _143  and  _146
REMARK   61  A    between atoms: _146  and  _147
REMARK   62  A    between atoms: _149  and  _151
REMARK   63  A    between atoms: _151  and  _152
REMARK   64  A    between atoms: _151  and  _154
REMARK   65  A    between atoms: _154  and  _155
REMARK   66  A    between atoms: _155  and  _265
REMARK   67  A    between atoms: _156  and  _158
REMARK   68  A    between atoms: _158  and  _159
REMARK   69  A    between atoms: _158  and  _161
REMARK   70  A    between atoms: _161  and  _162
REMARK   71  A    between atoms: _162  and  _163
REMARK   72  A    between atoms: _168  and  _170
REMARK   73  A    between atoms: _170  and  _171
REMARK   74  A    between atoms: _173  and  _175
REMARK   75  A    between atoms: _175  and  _176
REMARK   76  A    between atoms: _175  and  _178
REMARK   77  A    between atoms: _178  and  _179
REMARK   78  A    between atoms: _182  and  _184
REMARK   79  A    between atoms: _184  and  _185
REMARK   80  A    between atoms: _184  and  _187
REMARK   81  A    between atoms: _187  and  _188
REMARK   82  A    between atoms: _190  and  _192
REMARK   83  A    between atoms: _192  and  _193
REMARK   84  A    between atoms: _195  and  _197
REMARK   85  A    between atoms: _197  and  _198
REMARK   86  A    between atoms: _200  and  _202
REMARK   87  A    between atoms: _202  and  _203
REMARK   88  A    between atoms: _202  and  _205
REMARK   89  A    between atoms: _205  and  _206
REMARK   90  A    between atoms: _209  and  _211
REMARK   91  A    between atoms: _211  and  _212
REMARK   92  A    between atoms: _211  and  _214
REMARK   93  A    between atoms: _217  and  _219
REMARK   94  A    between atoms: _219  and  _220
REMARK   95  A    between atoms: _219  and  _222
REMARK   96  A    between atoms: _222  and  _223
REMARK   97  A    between atoms: _225  and  _227
REMARK   98  A    between atoms: _227  and  _228
REMARK   99  A    between atoms: _227  and  _230
REMARK  100  A    between atoms: _230  and  _231
REMARK  101  A    between atoms: _241  and  _243
REMARK  102  A    between atoms: _243  and  _244
REMARK  103  A    between atoms: _246  and  _248
REMARK  104  A    between atoms: _248  and  _249
REMARK  105  A    between atoms: _248  and  _251
REMARK  106  A    between atoms: _251  and  _252
REMARK  107  A    between atoms: _254  and  _256
REMARK  108  A    between atoms: _256  and  _257
REMARK  109  A    between atoms: _259  and  _261
REMARK  110  A    between atoms: _261  and  _262
REMARK  111  A    between atoms: _261  and  _264
REMARK  112  A    between atoms: _264  and  _265
REMARK  113  A    between atoms: _266  and  _268
REMARK  114  A    between atoms: _268  and  _269
REMARK  115  A    between atoms: _272  and  _274
REMARK  116  A    between atoms: _274  and  _275
REMARK  117  A    between atoms: _274  and  _277
REMARK  118  A    between atoms: _277  and  _278
REMARK  119  A    between atoms: _278  and  _279
REMARK  120  A    between atoms: _284  and  _286
REMARK  121  A    between atoms: _286  and  _287
REMARK  122  A    between atoms: _286  and  _289
REMARK  123  A    between atoms: _289  and  _290
REMARK  124  A    between atoms: _290  and  _291
REMARK  125  A    between atoms: _291  and  _292
REMARK  126  A    between atoms: _292  and  _293
REMARK  127  A    between atoms: _298  and  _299
REMARK  128  A    between atoms: _304  and  _306
REMARK  129  A    between atoms: _306  and  _307
REMARK  130  A    between atoms: _309  and  _311
REMARK  131  A    between atoms: _311  and  _312
REMARK  132  A    between atoms: _311  and  _314
REMARK  133  A    between atoms: _317  and  _319
REMARK  134  A    between atoms: _319  and  _320
REMARK  135  A    between atoms: _319  and  _322
REMARK  136  A    between atoms: _322  and  _323
REMARK  137  A    between atoms: _328  and  _329
REMARK                            x       y       z     vdW  Elec       q    Type
REMARK                         _______ _______ _______ _____ _____    ______ ____
ROOT
ATOM      1  O   HOH     1      52.382  22.103  57.851  0.00  0.00    +0.000 OA
ENDROOT
TORSDOF 0
REMARK  Name = ../refined-set-2016/1c5s/1c5s_pocket.pdb
REMARK  137 active torsions:
REMARK  status: ('A' for Active; 'I' for Inactive)
REMARK    1  A    between atoms: _1  and  _5
REMARK    2  A    between atoms: _5  and  _6
REMARK    3  A    between atoms: _5  and  _8
REMARK    4  A    between atoms: _8  and  _9
REMARK    5  A    between atoms: _12  and  _14
REMARK    6  A    between atoms: _14  and  _15
REMARK    7  A    between atoms: _14  and  _17
REMARK    8  A    between atoms: _20  and  _22
REMARK    9  A    between atoms: _22  and  _23
REMARK   10  A    between atoms: _22  and  _25
REMARK   11  A    between atoms: _27  and  _29
REMARK   12  A    between atoms: _29  and  _30
REMARK   13  A    between atoms: _29  and  _32
REMARK   14  A    between atoms: _32  and  _33
REMARK   15  A    between atoms: _38  and  _40
REMARK   16  A    between atoms: _40  and  _41
REMARK   17  A    between atoms: _40  and  _43
REMARK   18  A    between atoms: _43  and  _44
REMARK   19  A    between atoms: _47  and  _49
REMARK   20  A    between atoms: _49  and  _50
REMARK   21  A    between atoms: _49  and  _52
REMARK   22  A    between atoms: _52  and  _53
REMARK   23  A    between atoms: _56  and  _58
REMARK   24  A    between atoms: _58  and  _59
REMARK   25  A    between atoms: _58  and  _61
REMARK   26  A    between atoms: _61  and  _62
REMARK   27  A    between atoms: _65  and  _67
REMARK   28  A    between atoms: _67  and  _68
REMARK   29  A    between atoms: _67  and  _70
REMARK   30  A    between atoms: _70  and  _71
REMARK   31  A    between atoms: _76  and  _78
REMARK   32  A    between atoms: _78  and  _79
REMARK   33  A    between atoms: _78  and  _81
REMARK   34  A    between atoms: _81  and  _82
REMARK   35  A    between atoms: _87  and  _88
REMARK   36  A    between atoms: _90  and  _92
REMARK   37  A    between atoms: _92  and  _93
REMARK   38  A    between atoms: _92  and  _95
REMARK   39  A    between atoms: _95  and  _96
REMARK   40  A    between atoms: _99  and  _101
REMARK   41  A    between atoms: _101  and  _102
REMARK   42  A    between atoms: _101  and  _104
REMARK   43  A    between atoms: _104  and  _105
REMARK   44  A    between atoms: _110  and  _111
REMARK   45  A    between atoms: _113  and  _115
REMARK   46  A    between atoms: _115  and  _116
REMARK   47  A    between atoms: _119  and  _121
REMARK   48  A    between atoms: _121  and  _122
REMARK   49  A    between atoms: _121  and  _124
REMARK   50  A    between atoms: _124  and  _125
REMARK   51  A    between atoms: _125  and  _126
REMARK   52  A    between atoms: _126  and  _127
REMARK   53  A    between atoms: _127  and  _128
REMARK   54  A    between atoms: _132  and  _134
REMARK   55  A    between atoms: _134  and  _135
REMARK   56  A    between atoms: _134  and  _137
REMARK   57  A    between atoms: _137  and  _138
REMARK   58  A    between atoms: _141  and  _143
REMARK   59  A    between atoms: _143  and  _144
REMARK   60  A    between atoms: _143  and  _146
REMARK   61  A    between atoms: _146  and  _147
REMARK   62  A    between atoms: _149  and  _151
REMARK   63  A    between atoms: _151  and  _152
REMARK   64  A    between atoms: _151  and  _154
REMARK   65  A    between atoms: _154  and  _155
REMARK   66  A    between atoms: _155  and  _265
REMARK   67  A    between atoms: _156  and  _158
REMARK   68  A    between atoms: _158  and  _159
REMARK   69  A    between atoms: _158  and  _161
REMARK   70  A    between atoms: _161  and  _162
REMARK   71  A    between atoms: _162  and  _163
REMARK   72  A    between atoms: _168  and  _170
REMARK   73  A    between atoms: _170  and  _171
REMARK   74  A    between atoms: _173  and  _175
REMARK   75  A    between atoms: _175  and  _176
REMARK   76  A    between atoms: _175  and  _178
REMARK   77  A    between atoms: _178  and  _179
REMARK   78  A    between atoms: _182  and  _184
REMARK   79  A    between atoms: _184  and  _185
REMARK   80  A    between atoms: _184  and  _187
REMARK   81  A    between atoms: _187  and  _188
REMARK   82  A    between atoms: _190  and  _192
REMARK   83  A    between atoms: _192  and  _193
REMARK   84  A    between atoms: _195  and  _197
REMARK   85  A    between atoms: _197  and  _198
REMARK   86  A    between atoms: _200  and  _202
REMARK   87  A    between atoms: _202  and  _203
REMARK   88  A    between atoms: _202  and  _205
REMARK   89  A    between atoms: _205  and  _206
REMARK   90  A    between atoms: _209  and  _211
REMARK   91  A    between atoms: _211  and  _212
REMARK   92  A    between atoms: _211  and  _214
REMARK   93  A    between atoms: _217  and  _219
REMARK   94  A    between atoms: _219  and  _220
REMARK   95  A    between atoms: _219  and  _222
REMARK   96  A    between atoms: _222  and  _223
REMARK   97  A    between atoms: _225  and  _227
REMARK   98  A    between atoms: _227  and  _228
REMARK   99  A    between atoms: _227  and  _230
REMARK  100  A    between atoms: _230  and  _231
REMARK  101  A    between atoms: _241  and  _243
REMARK  102  A    between atoms: _243  and  _244
REMARK  103  A    between atoms: _246  and  _248
REMARK  104  A    between atoms: _248  and  _249
REMARK  105  A    between atoms: _248  and  _251
REMARK  106  A    between atoms: _251  and  _252
REMARK  107  A    between atoms: _254  and  _256
REMARK  108  A    between atoms: _256  and  _257
REMARK  109  A    between atoms: _259  and  _261
REMARK  110  A    between atoms: _261  and  _262
REMARK  111  A    between atoms: _261  and  _264
REMARK  112  A    between atoms: _264  and  _265
REMARK  113  A    between atoms: _266  and  _268
REMARK  114  A    between atoms: _268  and  _269
REMARK  115  A    between atoms: _272  and  _274
REMARK  116  A    between atoms: _274  and  _275
REMARK  117  A    between atoms: _274  and  _277
REMARK  118  A    between atoms: _277  and  _278
REMARK  119  A    between atoms: _278  and  _279
REMARK  120  A    between atoms: _284  and  _286
REMARK  121  A    between atoms: _286  and  _287
REMARK  122  A    between atoms: _286  and  _289
REMARK  123  A    between atoms: _289  and  _290
REMARK  124  A    between atoms: _290  and  _291
REMARK  125  A    between atoms: _291  and  _292
REMARK  126  A    between atoms: _292  and  _293
REMARK  127  A    between atoms: _298  and  _299
REMARK  128  A    between atoms: _304  and  _306
REMARK  129  A    between atoms: _306  and  _307
REMARK  130  A    between atoms: _309  and  _311
REMARK  131  A    between atoms: _311  and  _312
REMARK  132  A    between atoms: _311  and  _314
REMARK  133  A    between atoms: _317  and  _319
REMARK  134  A    between atoms: _319  and  _320
REMARK  135  A    between atoms: _319  and  _322
REMARK  136  A    between atoms: _322  and  _323
REMARK  137  A    between atoms: _328  and  _329
REMARK                            x       y       z     vdW  Elec       q    Type
REMARK                         _______ _______ _______ _____ _____    ______ ____
ROOT
ATOM      1  O   HOH     1      42.877  16.342  52.285  0.00  0.00    +0.000 OA
ENDROOT
TORSDOF 0
REMARK  Name = ../refined-set-2016/1c5s/1c5s_pocket.pdb
REMARK  137 active torsions:
REMARK  status: ('A' for Active; 'I' for Inactive)
REMARK    1  A    between atoms: _1  and  _5
REMARK    2  A    between atoms: _5  and  _6
REMARK    3  A    between atoms: _5  and  _8
REMARK    4  A    between atoms: _8  and  _9
REMARK    5  A    between atoms: _12  and  _14
REMARK    6  A    between atoms: _14  and  _15
REMARK    7  A    between atoms: _14  and  _17
REMARK    8  A    between atoms: _20  and  _22
REMARK    9  A    between atoms: _22  and  _23
REMARK   10  A    between atoms: _22  and  _25
REMARK   11  A    between atoms: _27  and  _29
REMARK   12  A    between atoms: _29  and  _30
REMARK   13  A    between atoms: _29  and  _32
REMARK   14  A    between atoms: _32  and  _33
REMARK   15  A    between atoms: _38  and  _40
REMARK   16  A    between atoms: _40  and  _41
REMARK   17  A    between atoms: _40  and  _43
REMARK   18  A    between atoms: _43  and  _44
REMARK   19  A    between atoms: _47  and  _49
REMARK   20  A    between atoms: _49  and  _50
REMARK   21  A    between atoms: _49  and  _52
REMARK   22  A    between atoms: _52  and  _53
REMARK   23  A    between atoms: _56  and  _58
REMARK   24  A    between atoms: _58  and  _59
REMARK   25  A    between atoms: _58  and  _61
REMARK   26  A    between atoms: _61  and  _62
REMARK   27  A    between atoms: _65  and  _67
REMARK   28  A    between atoms: _67  and  _68
REMARK   29  A    between atoms: _67  and  _70
REMARK   30  A    between atoms: _70  and  _71
REMARK   31  A    between atoms: _76  and  _78
REMARK   32  A    between atoms: _78  and  _79
REMARK   33  A    between atoms: _78  and  _81
REMARK   34  A    between atoms: _81  and  _82
REMARK   35  A    between atoms: _87  and  _88
REMARK   36  A    between atoms: _90  and  _92
REMARK   37  A    between atoms: _92  and  _93
REMARK   38  A    between atoms: _92  and  _95
REMARK   39  A    between atoms: _95  and  _96
REMARK   40  A    between atoms: _99  and  _101
REMARK   41  A    between atoms: _101  and  _102
REMARK   42  A    between atoms: _101  and  _104
REMARK   43  A    between atoms: _104  and  _105
REMARK   44  A    between atoms: _110  and  _111
REMARK   45  A    between atoms: _113  and  _115
REMARK   46  A    between atoms: _115  and  _116
REMARK   47  A    between atoms: _119  and  _121
REMARK   48  A    between atoms: _121  and  _122
REMARK   49  A    between atoms: _121  and  _124
REMARK   50  A    between atoms: _124  and  _125
REMARK   51  A    between atoms: _125  and  _126
REMARK   52  A    between atoms: _126  and  _127
REMARK   53  A    between atoms: _127  and  _128
REMARK   54  A    between atoms: _132  and  _134
REMARK   55  A    between atoms: _134  and  _135
REMARK   56  A    between atoms: _134  and  _137
REMARK   57  A    between atoms: _137  and  _138
REMARK   58  A    between atoms: _141  and  _143
REMARK   59  A    between atoms: _143  and  _144
REMARK   60  A    between atoms: _143  and  _146
REMARK   61  A    between atoms: _146  and  _147
REMARK   62  A    between atoms: _149  and  _151
REMARK   63  A    between atoms: _151  and  _152
REMARK   64  A    between atoms: _151  and  _154
REMARK   65  A    between atoms: _154  and  _155
REMARK   66  A    between atoms: _155  and  _265
REMARK   67  A    between atoms: _156  and  _158
REMARK   68  A    between atoms: _158  and  _159
REMARK   69  A    between atoms: _158  and  _161
REMARK   70  A    between atoms: _161  and  _162
REMARK   71  A    between atoms: _162  and  _163
REMARK   72  A    between atoms: _168  and  _170
REMARK   73  A    between atoms: _170  and  _171
REMARK   74  A    between atoms: _173  and  _175
REMARK   75  A    between atoms: _175  and  _176
REMARK   76  A    between atoms: _175  and  _178
REMARK   77  A    between atoms: _178  and  _179
REMARK   78  A    between atoms: _182  and  _184
REMARK   79  A    between atoms: _184  and  _185
REMARK   80  A    between atoms: _184  and  _187
REMARK   81  A    between atoms: _187  and  _188
REMARK   82  A    between atoms: _190  and  _192
REMARK   83  A    between atoms: _192  and  _193
REMARK   84  A    between atoms: _195  and  _197
REMARK   85  A    between atoms: _197  and  _198
REMARK   86  A    between atoms: _200  and  _202
REMARK   87  A    between atoms: _202  and  _203
REMARK   88  A    between atoms: _202  and  _205
REMARK   89  A    between atoms: _205  and  _206
REMARK   90  A    between atoms: _209  and  _211
REMARK   91  A    between atoms: _211  and  _212
REMARK   92  A    between atoms: _211  and  _214
REMARK   93  A    between atoms: _217  and  _219
REMARK   94  A    between atoms: _219  and  _220
REMARK   95  A    between atoms: _219  and  _222
REMARK   96  A    between atoms: _222  and  _223
REMARK   97  A    between atoms: _225  and  _227
REMARK   98  A    between atoms: _227  and  _228
REMARK   99  A    between atoms: _227  and  _230
REMARK  100  A    between atoms: _230  and  _231
REMARK  101  A    between atoms: _241  and  _243
REMARK  102  A    between atoms: _243  and  _244
REMARK  103  A    between atoms: _246  and  _248
REMARK  104  A    between atoms: _248  and  _249
REMARK  105  A    between atoms: _248  and  _251
REMARK  106  A    between atoms: _251  and  _252
REMARK  107  A    between atoms: _254  and  _256
REMARK  108  A    between atoms: _256  and  _257
REMARK  109  A    between atoms: _259  and  _261
REMARK  110  A    between atoms: _261  and  _262
REMARK  111  A    between atoms: _261  and  _264
REMARK  112  A    between atoms: _264  and  _265
REMARK  113  A    between atoms: _266  and  _268
REMARK  114  A    between atoms: _268  and  _269
REMARK  115  A    between atoms: _272  and  _274
REMARK  116  A    between atoms: _274  and  _275
REMARK  117  A    between atoms: _274  and  _277
REMARK  118  A    between atoms: _277  and  _278
REMARK  119  A    between atoms: _278  and  _279
REMARK  120  A    between atoms: _284  and  _286
REMARK  121  A    between atoms: _286  and  _287
REMARK  122  A    between atoms: _286  and  _289
REMARK  123  A    between atoms: _289  and  _290
REMARK  124  A    between atoms: _290  and  _291
REMARK  125  A    between atoms: _291  and  _292
REMARK  126  A    between atoms: _292  and  _293
REMARK  127  A    between atoms: _298  and  _299
REMARK  128  A    between atoms: _304  and  _306
REMARK  129  A    between atoms: _306  and  _307
REMARK  130  A    between atoms: _309  and  _311
REMARK  131  A    between atoms: _311  and  _312
REMARK  132  A    between atoms: _311  and  _314
REMARK  133  A    between atoms: _317  and  _319
REMARK  134  A    between atoms: _319  and  _320
REMARK  135  A    between atoms: _319  and  _322
REMARK  136  A    between atoms: _322  and  _323
REMARK  137  A    between atoms: _328  and  _329
REMARK                            x       y       z     vdW  Elec       q    Type
REMARK                         _______ _______ _______ _____ _____    ______ ____
ROOT
ATOM      1  O   HOH     1      41.366  23.567  50.803  0.00  0.00    +0.000 OA
ENDROOT
TORSDOF 0
REMARK  Name = ../refined-set-2016/1c5s/1c5s_pocket.pdb
REMARK  137 active torsions:
REMARK  status: ('A' for Active; 'I' for Inactive)
REMARK    1  A    between atoms: _1  and  _5
REMARK    2  A    between atoms: _5  and  _6
REMARK    3  A    between atoms: _5  and  _8
REMARK    4  A    between atoms: _8  and  _9
REMARK    5  A    between atoms: _12  and  _14
REMARK    6  A    between atoms: _14  and  _15
REMARK    7  A    between atoms: _14  and  _17
REMARK    8  A    between atoms: _20  and  _22
REMARK    9  A    between atoms: _22  and  _23
REMARK   10  A    between atoms: _22  and  _25
REMARK   11  A    between atoms: _27  and  _29
REMARK   12  A    between atoms: _29  and  _30
REMARK   13  A    between atoms: _29  and  _32
REMARK   14  A    between atoms: _32  and  _33
REMARK   15  A    between atoms: _38  and  _40
REMARK   16  A    between atoms: _40  and  _41
REMARK   17  A    between atoms: _40  and  _43
REMARK   18  A    between atoms: _43  and  _44
REMARK   19  A    between atoms: _47  and  _49
REMARK   20  A    between atoms: _49  and  _50
REMARK   21  A    between atoms: _49  and  _52
REMARK   22  A    between atoms: _52  and  _53
REMARK   23  A    between atoms: _56  and  _58
REMARK   24  A    between atoms: _58  and  _59
REMARK   25  A    between atoms: _58  and  _61
REMARK   26  A    between atoms: _61  and  _62
REMARK   27  A    between atoms: _65  and  _67
REMARK   28  A    between atoms: _67  and  _68
REMARK   29  A    between atoms: _67  and  _70
REMARK   30  A    between atoms: _70  and  _71
REMARK   31  A    between atoms: _76  and  _78
REMARK   32  A    between atoms: _78  and  _79
REMARK   33  A    between atoms: _78  and  _81
REMARK   34  A    between atoms: _81  and  _82
REMARK   35  A    between atoms: _87  and  _88
REMARK   36  A    between atoms: _90  and  _92
REMARK   37  A    between atoms: _92  and  _93
REMARK   38  A    between atoms: _92  and  _95
REMARK   39  A    between atoms: _95  and  _96
REMARK   40  A    between atoms: _99  and  _101
REMARK   41  A    between atoms: _101  and  _102
REMARK   42  A    between atoms: _101  and  _104
REMARK   43  A    between atoms: _104  and  _105
REMARK   44  A    between atoms: _110  and  _111
REMARK   45  A    between atoms: _113  and  _115
REMARK   46  A    between atoms: _115  and  _116
REMARK   47  A    between atoms: _119  and  _121
REMARK   48  A    between atoms: _121  and  _122
REMARK   49  A    between atoms: _121  and  _124
REMARK   50  A    between atoms: _124  and  _125
REMARK   51  A    between atoms: _125  and  _126
REMARK   52  A    between atoms: _126  and  _127
REMARK   53  A    between atoms: _127  and  _128
REMARK   54  A    between atoms: _132  and  _134
REMARK   55  A    between atoms: _134  and  _135
REMARK   56  A    between atoms: _134  and  _137
REMARK   57  A    between atoms: _137  and  _138
REMARK   58  A    between atoms: _141  and  _143
REMARK   59  A    between atoms: _143  and  _144
REMARK   60  A    between atoms: _143  and  _146
REMARK   61  A    between atoms: _146  and  _147
REMARK   62  A    between atoms: _149  and  _151
REMARK   63  A    between atoms: _151  and  _152
REMARK   64  A    between atoms: _151  and  _154
REMARK   65  A    between atoms: _154  and  _155
REMARK   66  A    between atoms: _155  and  _265
REMARK   67  A    between atoms: _156  and  _158
REMARK   68  A    between atoms: _158  and  _159
REMARK   69  A    between atoms: _158  and  _161
REMARK   70  A    between atoms: _161  and  _162
REMARK   71  A    between atoms: _162  and  _163
REMARK   72  A    between atoms: _168  and  _170
REMARK   73  A    between atoms: _170  and  _171
REMARK   74  A    between atoms: _173  and  _175
REMARK   75  A    between atoms: _175  and  _176
REMARK   76  A    between atoms: _175  and  _178
REMARK   77  A    between atoms: _178  and  _179
REMARK   78  A    between atoms: _182  and  _184
REMARK   79  A    between atoms: _184  and  _185
REMARK   80  A    between atoms: _184  and  _187
REMARK   81  A    between atoms: _187  and  _188
REMARK   82  A    between atoms: _190  and  _192
REMARK   83  A    between atoms: _192  and  _193
REMARK   84  A    between atoms: _195  and  _197
REMARK   85  A    between atoms: _197  and  _198
REMARK   86  A    between atoms: _200  and  _202
REMARK   87  A    between atoms: _202  and  _203
REMARK   88  A    between atoms: _202  and  _205
REMARK   89  A    between atoms: _205  and  _206
REMARK   90  A    between atoms: _209  and  _211
REMARK   91  A    between atoms: _211  and  _212
REMARK   92  A    between atoms: _211  and  _214
REMARK   93  A    between atoms: _217  and  _219
REMARK   94  A    between atoms: _219  and  _220
REMARK   95  A    between atoms: _219  and  _222
REMARK   96  A    between atoms: _222  and  _223
REMARK   97  A    between atoms: _225  and  _227
REMARK   98  A    between atoms: _227  and  _228
REMARK   99  A    between atoms: _227  and  _230
REMARK  100  A    between atoms: _230  and  _231
REMARK  101  A    between atoms: _241  and  _243
REMARK  102  A    between atoms: _243  and  _244
REMARK  103  A    between atoms: _246  and  _248
REMARK  104  A    between atoms: _248  and  _249
REMARK  105  A    between atoms: _248  and  _251
REMARK  106  A    between atoms: _251  and  _252
REMARK  107  A    between atoms: _254  and  _256
REMARK  108  A    between atoms: _256  and  _257
REMARK  109  A    between atoms: _259  and  _261
REMARK  110  A    between atoms: _261  and  _262
REMARK  111  A    between atoms: _261  and  _264
REMARK  112  A    between atoms: _264  and  _265
REMARK  113  A    between atoms: _266  and  _268
REMARK  114  A    between atoms: _268  and  _269
REMARK  115  A    between atoms: _272  and  _274
REMARK  116  A    between atoms: _274  and  _275
REMARK  117  A    between atoms: _274  and  _277
REMARK  118  A    between atoms: _277  and  _278
REMARK  119  A    between atoms: _278  and  _279
REMARK  120  A    between atoms: _284  and  _286
REMARK  121  A    between atoms: _286  and  _287
REMARK  122  A    between atoms: _286  and  _289
REMARK  123  A    between atoms: _289  and  _290
REMARK  124  A    between atoms: _290  and  _291
REMARK  125  A    between atoms: _291  and  _292
REMARK  126  A    between atoms: _292  and  _293
REMARK  127  A    between atoms: _298  and  _299
REMARK  128  A    between atoms: _304  and  _306
REMARK  129  A    between atoms: _306  and  _307
REMARK  130  A    between atoms: _309  and  _311
REMARK  131  A    between atoms: _311  and  _312
REMARK  132  A    between atoms: _311  and  _314
REMARK  133  A    between atoms: _317  and  _319
REMARK  134  A    between atoms: _319  and  _320
REMARK  135  A    between atoms: _319  and  _322
REMARK  136  A    between atoms: _322  and  _323
REMARK  137  A    between atoms: _328  and  _329
REMARK                            x       y       z     vdW  Elec       q    Type
REMARK                         _______ _______ _______ _____ _____    ______ ____
ROOT
ATOM      1  O   HOH     1      48.934  26.172  57.762  0.00  0.00    +0.000 OA
ENDROOT
TORSDOF 0
REMARK  Name = ../refined-set-2016/1c5s/1c5s_pocket.pdb
REMARK  137 active torsions:
REMARK  status: ('A' for Active; 'I' for Inactive)
REMARK    1  A    between atoms: _1  and  _5
REMARK    2  A    between atoms: _5  and  _6
REMARK    3  A    between atoms: _5  and  _8
REMARK    4  A    between atoms: _8  and  _9
REMARK    5  A    between atoms: _12  and  _14
REMARK    6  A    between atoms: _14  and  _15
REMARK    7  A    between atoms: _14  and  _17
REMARK    8  A    between atoms: _20  and  _22
REMARK    9  A    between atoms: _22  and  _23
REMARK   10  A    between atoms: _22  and  _25
REMARK   11  A    between atoms: _27  and  _29
REMARK   12  A    between atoms: _29  and  _30
REMARK   13  A    between atoms: _29  and  _32
REMARK   14  A    between atoms: _32  and  _33
REMARK   15  A    between atoms: _38  and  _40
REMARK   16  A    between atoms: _40  and  _41
REMARK   17  A    between atoms: _40  and  _43
REMARK   18  A    between atoms: _43  and  _44
REMARK   19  A    between atoms: _47  and  _49
REMARK   20  A    between atoms: _49  and  _50
REMARK   21  A    between atoms: _49  and  _52
REMARK   22  A    between atoms: _52  and  _53
REMARK   23  A    between atoms: _56  and  _58
REMARK   24  A    between atoms: _58  and  _59
REMARK   25  A    between atoms: _58  and  _61
REMARK   26  A    between atoms: _61  and  _62
REMARK   27  A    between atoms: _65  and  _67
REMARK   28  A    between atoms: _67  and  _68
REMARK   29  A    between atoms: _67  and  _70
REMARK   30  A    between atoms: _70  and  _71
REMARK   31  A    between atoms: _76  and  _78
REMARK   32  A    between atoms: _78  and  _79
REMARK   33  A    between atoms: _78  and  _81
REMARK   34  A    between atoms: _81  and  _82
REMARK   35  A    between atoms: _87  and  _88
REMARK   36  A    between atoms: _90  and  _92
REMARK   37  A    between atoms: _92  and  _93
REMARK   38  A    between atoms: _92  and  _95
REMARK   39  A    between atoms: _95  and  _96
REMARK   40  A    between atoms: _99  and  _101
REMARK   41  A    between atoms: _101  and  _102
REMARK   42  A    between atoms: _101  and  _104
REMARK   43  A    between atoms: _104  and  _105
REMARK   44  A    between atoms: _110  and  _111
REMARK   45  A    between atoms: _113  and  _115
REMARK   46  A    between atoms: _115  and  _116
REMARK   47  A    between atoms: _119  and  _121
REMARK   48  A    between atoms: _121  and  _122
REMARK   49  A    between atoms: _121  and  _124
REMARK   50  A    between atoms: _124  and  _125
REMARK   51  A    between atoms: _125  and  _126
REMARK   52  A    between atoms: _126  and  _127
REMARK   53  A    between atoms: _127  and  _128
REMARK   54  A    between atoms: _132  and  _134
REMARK   55  A    between atoms: _134  and  _135
REMARK   56  A    between atoms: _134  and  _137
REMARK   57  A    between atoms: _137  and  _138
REMARK   58  A    between atoms: _141  and  _143
REMARK   59  A    between atoms: _143  and  _144
REMARK   60  A    between atoms: _143  and  _146
REMARK   61  A    between atoms: _146  and  _147
REMARK   62  A    between atoms: _149  and  _151
REMARK   63  A    between atoms: _151  and  _152
REMARK   64  A    between atoms: _151  and  _154
REMARK   65  A    between atoms: _154  and  _155
REMARK   66  A    between atoms: _155  and  _265
REMARK   67  A    between atoms: _156  and  _158
REMARK   68  A    between atoms: _158  and  _159
REMARK   69  A    between atoms: _158  and  _161
REMARK   70  A    between atoms: _161  and  _162
REMARK   71  A    between atoms: _162  and  _163
REMARK   72  A    between atoms: _168  and  _170
REMARK   73  A    between atoms: _170  and  _171
REMARK   74  A    between atoms: _173  and  _175
REMARK   75  A    between atoms: _175  and  _176
REMARK   76  A    between atoms: _175  and  _178
REMARK   77  A    between atoms: _178  and  _179
REMARK   78  A    between atoms: _182  and  _184
REMARK   79  A    between atoms: _184  and  _185
REMARK   80  A    between atoms: _184  and  _187
REMARK   81  A    between atoms: _187  and  _188
REMARK   82  A    between atoms: _190  and  _192
REMARK   83  A    between atoms: _192  and  _193
REMARK   84  A    between atoms: _195  and  _197
REMARK   85  A    between atoms: _197  and  _198
REMARK   86  A    between atoms: _200  and  _202
REMARK   87  A    between atoms: _202  and  _203
REMARK   88  A    between atoms: _202  and  _205
REMARK   89  A    between atoms: _205  and  _206
REMARK   90  A    between atoms: _209  and  _211
REMARK   91  A    between atoms: _211  and  _212
REMARK   92  A    between atoms: _211  and  _214
REMARK   93  A    between atoms: _217  and  _219
REMARK   94  A    between atoms: _219  and  _220
REMARK   95  A    between atoms: _219  and  _222
REMARK   96  A    between atoms: _222  and  _223
REMARK   97  A    between atoms: _225  and  _227
REMARK   98  A    between atoms: _227  and  _228
REMARK   99  A    between atoms: _227  and  _230
REMARK  100  A    between atoms: _230  and  _231
REMARK  101  A    between atoms: _241  and  _243
REMARK  102  A    between atoms: _243  and  _244
REMARK  103  A    between atoms: _246  and  _248
REMARK  104  A    between atoms: _248  and  _249
REMARK  105  A    between atoms: _248  and  _251
REMARK  106  A    between atoms: _251  and  _252
REMARK  107  A    between atoms: _254  and  _256
REMARK  108  A    between atoms: _256  and  _257
REMARK  109  A    between atoms: _259  and  _261
REMARK  110  A    between atoms: _261  and  _262
REMARK  111  A    between atoms: _261  and  _264
REMARK  112  A    between atoms: _264  and  _265
REMARK  113  A    between atoms: _266  and  _268
REMARK  114  A    between atoms: _268  and  _269
REMARK  115  A    between atoms: _272  and  _274
REMARK  116  A    between atoms: _274  and  _275
REMARK  117  A    between atoms: _274  and  _277
REMARK  118  A    between atoms: _277  and  _278
REMARK  119  A    between atoms: _278  and  _279
REMARK  120  A    between atoms: _284  and  _286
REMARK  121  A    between atoms: _286  and  _287
REMARK  122  A    between atoms: _286  and  _289
REMARK  123  A    between atoms: _289  and  _290
REMARK  124  A    between atoms: _290  and  _291
REMARK  125  A    between atoms: _291  and  _292
REMARK  126  A    between atoms: _292  and  _293
REMARK  127  A    between atoms: _298  and  _299
REMARK  128  A    between atoms: _304  and  _306
REMARK  129  A    between atoms: _306  and  _307
REMARK  130  A    between atoms: _309  and  _311
REMARK  131  A    between atoms: _311  and  _312
REMARK  132  A    between atoms: _311  and  _314
REMARK  133  A    between atoms: _317  and  _319
REMARK  134  A    between atoms: _319  and  _320
REMARK  135  A    between atoms: _319  and  _322
REMARK  136  A    between atoms: _322  and  _323
REMARK  137  A    between atoms: _328  and  _329
REMARK                            x       y       z     vdW  Elec       q    Type
REMARK                         _______ _______ _______ _____ _____    ______ ____
ROOT
ATOM      1  O   HOH     1      43.561  26.114  44.035  0.00  0.00    +0.000 OA
ENDROOT
TORSDOF 0
REMARK  Name = ../refined-set-2016/1c5s/1c5s_pocket.pdb
REMARK  137 active torsions:
REMARK  status: ('A' for Active; 'I' for Inactive)
REMARK    1  A    between atoms: _1  and  _5
REMARK    2  A    between atoms: _5  and  _6
REMARK    3  A    between atoms: _5  and  _8
REMARK    4  A    between atoms: _8  and  _9
REMARK    5  A    between atoms: _12  and  _14
REMARK    6  A    between atoms: _14  and  _15
REMARK    7  A    between atoms: _14  and  _17
REMARK    8  A    between atoms: _20  and  _22
REMARK    9  A    between atoms: _22  and  _23
REMARK   10  A    between atoms: _22  and  _25
REMARK   11  A    between atoms: _27  and  _29
REMARK   12  A    between atoms: _29  and  _30
REMARK   13  A    between atoms: _29  and  _32
REMARK   14  A    between atoms: _32  and  _33
REMARK   15  A    between atoms: _38  and  _40
REMARK   16  A    between atoms: _40  and  _41
REMARK   17  A    between atoms: _40  and  _43
REMARK   18  A    between atoms: _43  and  _44
REMARK   19  A    between atoms: _47  and  _49
REMARK   20  A    between atoms: _49  and  _50
REMARK   21  A    between atoms: _49  and  _52
REMARK   22  A    between atoms: _52  and  _53
REMARK   23  A    between atoms: _56  and  _58
REMARK   24  A    between atoms: _58  and  _59
REMARK   25  A    between atoms: _58  and  _61
REMARK   26  A    between atoms: _61  and  _62
REMARK   27  A    between atoms: _65  and  _67
REMARK   28  A    between atoms: _67  and  _68
REMARK   29  A    between atoms: _67  and  _70
REMARK   30  A    between atoms: _70  and  _71
REMARK   31  A    between atoms: _76  and  _78
REMARK   32  A    between atoms: _78  and  _79
REMARK   33  A    between atoms: _78  and  _81
REMARK   34  A    between atoms: _81  and  _82
REMARK   35  A    between atoms: _87  and  _88
REMARK   36  A    between atoms: _90  and  _92
REMARK   37  A    between atoms: _92  and  _93
REMARK   38  A    between atoms: _92  and  _95
REMARK   39  A    between atoms: _95  and  _96
REMARK   40  A    between atoms: _99  and  _101
REMARK   41  A    between atoms: _101  and  _102
REMARK   42  A    between atoms: _101  and  _104
REMARK   43  A    between atoms: _104  and  _105
REMARK   44  A    between atoms: _110  and  _111
REMARK   45  A    between atoms: _113  and  _115
REMARK   46  A    between atoms: _115  and  _116
REMARK   47  A    between atoms: _119  and  _121
REMARK   48  A    between atoms: _121  and  _122
REMARK   49  A    between atoms: _121  and  _124
REMARK   50  A    between atoms: _124  and  _125
REMARK   51  A    between atoms: _125  and  _126
REMARK   52  A    between atoms: _126  and  _127
REMARK   53  A    between atoms: _127  and  _128
REMARK   54  A    between atoms: _132  and  _134
REMARK   55  A    between atoms: _134  and  _135
REMARK   56  A    between atoms: _134  and  _137
REMARK   57  A    between atoms: _137  and  _138
REMARK   58  A    between atoms: _141  and  _143
REMARK   59  A    between atoms: _143  and  _144
REMARK   60  A    between atoms: _143  and  _146
REMARK   61  A    between atoms: _146  and  _147
REMARK   62  A    between atoms: _149  and  _151
REMARK   63  A    between atoms: _151  and  _152
REMARK   64  A    between atoms: _151  and  _154
REMARK   65  A    between atoms: _154  and  _155
REMARK   66  A    between atoms: _155  and  _265
REMARK   67  A    between atoms: _156  and  _158
REMARK   68  A    between atoms: _158  and  _159
REMARK   69  A    between atoms: _158  and  _161
REMARK   70  A    between atoms: _161  and  _162
REMARK   71  A    between atoms: _162  and  _163
REMARK   72  A    between atoms: _168  and  _170
REMARK   73  A    between atoms: _170  and  _171
REMARK   74  A    between atoms: _173  and  _175
REMARK   75  A    between atoms: _175  and  _176
REMARK   76  A    between atoms: _175  and  _178
REMARK   77  A    between atoms: _178  and  _179
REMARK   78  A    between atoms: _182  and  _184
REMARK   79  A    between atoms: _184  and  _185
REMARK   80  A    between atoms: _184  and  _187
REMARK   81  A    between atoms: _187  and  _188
REMARK   82  A    between atoms: _190  and  _192
REMARK   83  A    between atoms: _192  and  _193
REMARK   84  A    between atoms: _195  and  _197
REMARK   85  A    between atoms: _197  and  _198
REMARK   86  A    between atoms: _200  and  _202
REMARK   87  A    between atoms: _202  and  _203
REMARK   88  A    between atoms: _202  and  _205
REMARK   89  A    between atoms: _205  and  _206
REMARK   90  A    between atoms: _209  and  _211
REMARK   91  A    between atoms: _211  and  _212
REMARK   92  A    between atoms: _211  and  _214
REMARK   93  A    between atoms: _217  and  _219
REMARK   94  A    between atoms: _219  and  _220
REMARK   95  A    between atoms: _219  and  _222
REMARK   96  A    between atoms: _222  and  _223
REMARK   97  A    between atoms: _225  and  _227
REMARK   98  A    between atoms: _227  and  _228
REMARK   99  A    between atoms: _227  and  _230
REMARK  100  A    between atoms: _230  and  _231
REMARK  101  A    between atoms: _241  and  _243
REMARK  102  A    between atoms: _243  and  _244
REMARK  103  A    between atoms: _246  and  _248
REMARK  104  A    between atoms: _248  and  _249
REMARK  105  A    between atoms: _248  and  _251
REMARK  106  A    between atoms: _251  and  _252
REMARK  107  A    between atoms: _254  and  _256
REMARK  108  A    between atoms: _256  and  _257
REMARK  109  A    between atoms: _259  and  _261
REMARK  110  A    between atoms: _261  and  _262
REMARK  111  A    between atoms: _261  and  _264
REMARK  112  A    between atoms: _264  and  _265
REMARK  113  A    between atoms: _266  and  _268
REMARK  114  A    between atoms: _268  and  _269
REMARK  115  A    between atoms: _272  and  _274
REMARK  116  A    between atoms: _274  and  _275
REMARK  117  A    between atoms: _274  and  _277
REMARK  118  A    between atoms: _277  and  _278
REMARK  119  A    between atoms: _278  and  _279
REMARK  120  A    between atoms: _284  and  _286
REMARK  121  A    between atoms: _286  and  _287
REMARK  122  A    between atoms: _286  and  _289
REMARK  123  A    between atoms: _289  and  _290
REMARK  124  A    between atoms: _290  and  _291
REMARK  125  A    between atoms: _291  and  _292
REMARK  126  A    between atoms: _292  and  _293
REMARK  127  A    between atoms: _298  and  _299
REMARK  128  A    between atoms: _304  and  _306
REMARK  129  A    between atoms: _306  and  _307
REMARK  130  A    between atoms: _309  and  _311
REMARK  131  A    between atoms: _311  and  _312
REMARK  132  A    between atoms: _311  and  _314
REMARK  133  A    between atoms: _317  and  _319
REMARK  134  A    between atoms: _319  and  _320
REMARK  135  A    between atoms: _319  and  _322
REMARK  136  A    between atoms: _322  and  _323
REMARK  137  A    between atoms: _328  and  _329
REMARK                            x       y       z     vdW  Elec       q    Type
REMARK                         _______ _______ _______ _____ _____    ______ ____
ROOT
ATOM      1  O   HOH     1      45.853  23.133  46.696  0.00  0.00    +0.000 OA
ENDROOT
TORSDOF 0
REMARK  Name = ../refined-set-2016/1c5s/1c5s_pocket.pdb
REMARK  137 active torsions:
REMARK  status: ('A' for Active; 'I' for Inactive)
REMARK    1  A    between atoms: _1  and  _5
REMARK    2  A    between atoms: _5  and  _6
REMARK    3  A    between atoms: _5  and  _8
REMARK    4  A    between atoms: _8  and  _9
REMARK    5  A    between atoms: _12  and  _14
REMARK    6  A    between atoms: _14  and  _15
REMARK    7  A    between atoms: _14  and  _17
REMARK    8  A    between atoms: _20  and  _22
REMARK    9  A    between atoms: _22  and  _23
REMARK   10  A    between atoms: _22  and  _25
REMARK   11  A    between atoms: _27  and  _29
REMARK   12  A    between atoms: _29  and  _30
REMARK   13  A    between atoms: _29  and  _32
REMARK   14  A    between atoms: _32  and  _33
REMARK   15  A    between atoms: _38  and  _40
REMARK   16  A    between atoms: _40  and  _41
REMARK   17  A    between atoms: _40  and  _43
REMARK   18  A    between atoms: _43  and  _44
REMARK   19  A    between atoms: _47  and  _49
REMARK   20  A    between atoms: _49  and  _50
REMARK   21  A    between atoms: _49  and  _52
REMARK   22  A    between atoms: _52  and  _53
REMARK   23  A    between atoms: _56  and  _58
REMARK   24  A    between atoms: _58  and  _59
REMARK   25  A    between atoms: _58  and  _61
REMARK   26  A    between atoms: _61  and  _62
REMARK   27  A    between atoms: _65  and  _67
REMARK   28  A    between atoms: _67  and  _68
REMARK   29  A    between atoms: _67  and  _70
REMARK   30  A    between atoms: _70  and  _71
REMARK   31  A    between atoms: _76  and  _78
REMARK   32  A    between atoms: _78  and  _79
REMARK   33  A    between atoms: _78  and  _81
REMARK   34  A    between atoms: _81  and  _82
REMARK   35  A    between atoms: _87  and  _88
REMARK   36  A    between atoms: _90  and  _92
REMARK   37  A    between atoms: _92  and  _93
REMARK   38  A    between atoms: _92  and  _95
REMARK   39  A    between atoms: _95  and  _96
REMARK   40  A    between atoms: _99  and  _101
REMARK   41  A    between atoms: _101  and  _102
REMARK   42  A    between atoms: _101  and  _104
REMARK   43  A    between atoms: _104  and  _105
REMARK   44  A    between atoms: _110  and  _111
REMARK   45  A    between atoms: _113  and  _115
REMARK   46  A    between atoms: _115  and  _116
REMARK   47  A    between atoms: _119  and  _121
REMARK   48  A    between atoms: _121  and  _122
REMARK   49  A    between atoms: _121  and  _124
REMARK   50  A    between atoms: _124  and  _125
REMARK   51  A    between atoms: _125  and  _126
REMARK   52  A    between atoms: _126  and  _127
REMARK   53  A    between atoms: _127  and  _128
REMARK   54  A    between atoms: _132  and  _134
REMARK   55  A    between atoms: _134  and  _135
REMARK   56  A    between atoms: _134  and  _137
REMARK   57  A    between atoms: _137  and  _138
REMARK   58  A    between atoms: _141  and  _143
REMARK   59  A    between atoms: _143  and  _144
REMARK   60  A    between atoms: _143  and  _146
REMARK   61  A    between atoms: _146  and  _147
REMARK   62  A    between atoms: _149  and  _151
REMARK   63  A    between atoms: _151  and  _152
REMARK   64  A    between atoms: _151  and  _154
REMARK   65  A    between atoms: _154  and  _155
REMARK   66  A    between atoms: _155  and  _265
REMARK   67  A    between atoms: _156  and  _158
REMARK   68  A    between atoms: _158  and  _159
REMARK   69  A    between atoms: _158  and  _161
REMARK   70  A    between atoms: _161  and  _162
REMARK   71  A    between atoms: _162  and  _163
REMARK   72  A    between atoms: _168  and  _170
REMARK   73  A    between atoms: _170  and  _171
REMARK   74  A    between atoms: _173  and  _175
REMARK   75  A    between atoms: _175  and  _176
REMARK   76  A    between atoms: _175  and  _178
REMARK   77  A    between atoms: _178  and  _179
REMARK   78  A    between atoms: _182  and  _184
REMARK   79  A    between atoms: _184  and  _185
REMARK   80  A    between atoms: _184  and  _187
REMARK   81  A    between atoms: _187  and  _188
REMARK   82  A    between atoms: _190  and  _192
REMARK   83  A    between atoms: _192  and  _193
REMARK   84  A    between atoms: _195  and  _197
REMARK   85  A    between atoms: _197  and  _198
REMARK   86  A    between atoms: _200  and  _202
REMARK   87  A    between atoms: _202  and  _203
REMARK   88  A    between atoms: _202  and  _205
REMARK   89  A    between atoms: _205  and  _206
REMARK   90  A    between atoms: _209  and  _211
REMARK   91  A    between atoms: _211  and  _212
REMARK   92  A    between atoms: _211  and  _214
REMARK   93  A    between atoms: _217  and  _219
REMARK   94  A    between atoms: _219  and  _220
REMARK   95  A    between atoms: _219  and  _222
REMARK   96  A    between atoms: _222  and  _223
REMARK   97  A    between atoms: _225  and  _227
REMARK   98  A    between atoms: _227  and  _228
REMARK   99  A    between atoms: _227  and  _230
REMARK  100  A    between atoms: _230  and  _231
REMARK  101  A    between atoms: _241  and  _243
REMARK  102  A    between atoms: _243  and  _244
REMARK  103  A    between atoms: _246  and  _248
REMARK  104  A    between atoms: _248  and  _249
REMARK  105  A    between atoms: _248  and  _251
REMARK  106  A    between atoms: _251  and  _252
REMARK  107  A    between atoms: _254  and  _256
REMARK  108  A    between atoms: _256  and  _257
REMARK  109  A    between atoms: _259  and  _261
REMARK  110  A    between atoms: _261  and  _262
REMARK  111  A    between atoms: _261  and  _264
REMARK  112  A    between atoms: _264  and  _265
REMARK  113  A    between atoms: _266  and  _268
REMARK  114  A    between atoms: _268  and  _269
REMARK  115  A    between atoms: _272  and  _274
REMARK  116  A    between atoms: _274  and  _275
REMARK  117  A    between atoms: _274  and  _277
REMARK  118  A    between atoms: _277  and  _278
REMARK  119  A    between atoms: _278  and  _279
REMARK  120  A    between atoms: _284  and  _286
REMARK  121  A    between atoms: _286  and  _287
REMARK  122  A    between atoms: _286  and  _289
REMARK  123  A    between atoms: _289  and  _290
REMARK  124  A    between atoms: _290  and  _291
REMARK  125  A    between atoms: _291  and  _292
REMARK  126  A    between atoms: _292  and  _293
REMARK  127  A    between atoms: _298  and  _299
REMARK  128  A    between atoms: _304  and  _306
REMARK  129  A    between atoms: _306  and  _307
REMARK  130  A    between atoms: _309  and  _311
REMARK  131  A    between atoms: _311  and  _312
REMARK  132  A    between atoms: _311  and  _314
REMARK  133  A    between atoms: _317  and  _319
REMARK  134  A    between atoms: _319  and  _320
REMARK  135  A    between atoms: _319  and  _322
REMARK  136  A    between atoms: _322  and  _323
REMARK  137  A    between atoms: _328  and  _329
REMARK                            x       y       z     vdW  Elec       q    Type
REMARK                         _______ _______ _______ _____ _____    ______ ____
ROOT
ATOM      1  O   HOH     1      50.714  28.676  50.418  0.00  0.00    +0.000 OA
ENDROOT
TORSDOF 0
REMARK  Name = ../refined-set-2016/1c5s/1c5s_pocket.pdb
REMARK  137 active torsions:
REMARK  status: ('A' for Active; 'I' for Inactive)
REMARK    1  A    between atoms: _1  and  _5
REMARK    2  A    between atoms: _5  and  _6
REMARK    3  A    between atoms: _5  and  _8
REMARK    4  A    between atoms: _8  and  _9
REMARK    5  A    between atoms: _12  and  _14
REMARK    6  A    between atoms: _14  and  _15
REMARK    7  A    between atoms: _14  and  _17
REMARK    8  A    between atoms: _20  and  _22
REMARK    9  A    between atoms: _22  and  _23
REMARK   10  A    between atoms: _22  and  _25
REMARK   11  A    between atoms: _27  and  _29
REMARK   12  A    between atoms: _29  and  _30
REMARK   13  A    between atoms: _29  and  _32
REMARK   14  A    between atoms: _32  and  _33
REMARK   15  A    between atoms: _38  and  _40
REMARK   16  A    between atoms: _40  and  _41
REMARK   17  A    between atoms: _40  and  _43
REMARK   18  A    between atoms: _43  and  _44
REMARK   19  A    between atoms: _47  and  _49
REMARK   20  A    between atoms: _49  and  _50
REMARK   21  A    between atoms: _49  and  _52
REMARK   22  A    between atoms: _52  and  _53
REMARK   23  A    between atoms: _56  and  _58
REMARK   24  A    between atoms: _58  and  _59
REMARK   25  A    between atoms: _58  and  _61
REMARK   26  A    between atoms: _61  and  _62
REMARK   27  A    between atoms: _65  and  _67
REMARK   28  A    between atoms: _67  and  _68
REMARK   29  A    between atoms: _67  and  _70
REMARK   30  A    between atoms: _70  and  _71
REMARK   31  A    between atoms: _76  and  _78
REMARK   32  A    between atoms: _78  and  _79
REMARK   33  A    between atoms: _78  and  _81
REMARK   34  A    between atoms: _81  and  _82
REMARK   35  A    between atoms: _87  and  _88
REMARK   36  A    between atoms: _90  and  _92
REMARK   37  A    between atoms: _92  and  _93
REMARK   38  A    between atoms: _92  and  _95
REMARK   39  A    between atoms: _95  and  _96
REMARK   40  A    between atoms: _99  and  _101
REMARK   41  A    between atoms: _101  and  _102
REMARK   42  A    between atoms: _101  and  _104
REMARK   43  A    between atoms: _104  and  _105
REMARK   44  A    between atoms: _110  and  _111
REMARK   45  A    between atoms: _113  and  _115
REMARK   46  A    between atoms: _115  and  _116
REMARK   47  A    between atoms: _119  and  _121
REMARK   48  A    between atoms: _121  and  _122
REMARK   49  A    between atoms: _121  and  _124
REMARK   50  A    between atoms: _124  and  _125
REMARK   51  A    between atoms: _125  and  _126
REMARK   52  A    between atoms: _126  and  _127
REMARK   53  A    between atoms: _127  and  _128
REMARK   54  A    between atoms: _132  and  _134
REMARK   55  A    between atoms: _134  and  _135
REMARK   56  A    between atoms: _134  and  _137
REMARK   57  A    between atoms: _137  and  _138
REMARK   58  A    between atoms: _141  and  _143
REMARK   59  A    between atoms: _143  and  _144
REMARK   60  A    between atoms: _143  and  _146
REMARK   61  A    between atoms: _146  and  _147
REMARK   62  A    between atoms: _149  and  _151
REMARK   63  A    between atoms: _151  and  _152
REMARK   64  A    between atoms: _151  and  _154
REMARK   65  A    between atoms: _154  and  _155
REMARK   66  A    between atoms: _155  and  _265
REMARK   67  A    between atoms: _156  and  _158
REMARK   68  A    between atoms: _158  and  _159
REMARK   69  A    between atoms: _158  and  _161
REMARK   70  A    between atoms: _161  and  _162
REMARK   71  A    between atoms: _162  and  _163
REMARK   72  A    between atoms: _168  and  _170
REMARK   73  A    between atoms: _170  and  _171
REMARK   74  A    between atoms: _173  and  _175
REMARK   75  A    between atoms: _175  and  _176
REMARK   76  A    between atoms: _175  and  _178
REMARK   77  A    between atoms: _178  and  _179
REMARK   78  A    between atoms: _182  and  _184
REMARK   79  A    between atoms: _184  and  _185
REMARK   80  A    between atoms: _184  and  _187
REMARK   81  A    between atoms: _187  and  _188
REMARK   82  A    between atoms: _190  and  _192
REMARK   83  A    between atoms: _192  and  _193
REMARK   84  A    between atoms: _195  and  _197
REMARK   85  A    between atoms: _197  and  _198
REMARK   86  A    between atoms: _200  and  _202
REMARK   87  A    between atoms: _202  and  _203
REMARK   88  A    between atoms: _202  and  _205
REMARK   89  A    between atoms: _205  and  _206
REMARK   90  A    between atoms: _209  and  _211
REMARK   91  A    between atoms: _211  and  _212
REMARK   92  A    between atoms: _211  and  _214
REMARK   93  A    between atoms: _217  and  _219
REMARK   94  A    between atoms: _219  and  _220
REMARK   95  A    between atoms: _219  and  _222
REMARK   96  A    between atoms: _222  and  _223
REMARK   97  A    between atoms: _225  and  _227
REMARK   98  A    between atoms: _227  and  _228
REMARK   99  A    between atoms: _227  and  _230
REMARK  100  A    between atoms: _230  and  _231
REMARK  101  A    between atoms: _241  and  _243
REMARK  102  A    between atoms: _243  and  _244
REMARK  103  A    between atoms: _246  and  _248
REMARK  104  A    between atoms: _248  and  _249
REMARK  105  A    between atoms: _248  and  _251
REMARK  106  A    between atoms: _251  and  _252
REMARK  107  A    between atoms: _254  and  _256
REMARK  108  A    between atoms: _256  and  _257
REMARK  109  A    between atoms: _259  and  _261
REMARK  110  A    between atoms: _261  and  _262
REMARK  111  A    between atoms: _261  and  _264
REMARK  112  A    between atoms: _264  and  _265
REMARK  113  A    between atoms: _266  and  _268
REMARK  114  A    between atoms: _268  and  _269
REMARK  115  A    between atoms: _272  and  _274
REMARK  116  A    between atoms: _274  and  _275
REMARK  117  A    between atoms: _274  and  _277
REMARK  118  A    between atoms: _277  and  _278
REMARK  119  A    between atoms: _278  and  _279
REMARK  120  A    between atoms: _284  and  _286
REMARK  121  A    between atoms: _286  and  _287
REMARK  122  A    between atoms: _286  and  _289
REMARK  123  A    between atoms: _289  and  _290
REMARK  124  A    between atoms: _290  and  _291
REMARK  125  A    between atoms: _291  and  _292
REMARK  126  A    between atoms: _292  and  _293
REMARK  127  A    between atoms: _298  and  _299
REMARK  128  A    between atoms: _304  and  _306
REMARK  129  A    between atoms: _306  and  _307
REMARK  130  A    between atoms: _309  and  _311
REMARK  131  A    between atoms: _311  and  _312
REMARK  132  A    between atoms: _311  and  _314
REMARK  133  A    between atoms: _317  and  _319
REMARK  134  A    between atoms: _319  and  _320
REMARK  135  A    between atoms: _319  and  _322
REMARK  136  A    between atoms: _322  and  _323
REMARK  137  A    between atoms: _328  and  _329
REMARK                            x       y       z     vdW  Elec       q    Type
REMARK                         _______ _______ _______ _____ _____    ______ ____
ROOT
ATOM      1  O   HOH     1      46.726  24.914  55.797  0.00  0.00    +0.000 OA
ENDROOT
TORSDOF 0
REMARK  Name = ../refined-set-2016/1c5s/1c5s_pocket.pdb
REMARK  137 active torsions:
REMARK  status: ('A' for Active; 'I' for Inactive)
REMARK    1  A    between atoms: _1  and  _5
REMARK    2  A    between atoms: _5  and  _6
REMARK    3  A    between atoms: _5  and  _8
REMARK    4  A    between atoms: _8  and  _9
REMARK    5  A    between atoms: _12  and  _14
REMARK    6  A    between atoms: _14  and  _15
REMARK    7  A    between atoms: _14  and  _17
REMARK    8  A    between atoms: _20  and  _22
REMARK    9  A    between atoms: _22  and  _23
REMARK   10  A    between atoms: _22  and  _25
REMARK   11  A    between atoms: _27  and  _29
REMARK   12  A    between atoms: _29  and  _30
REMARK   13  A    between atoms: _29  and  _32
REMARK   14  A    between atoms: _32  and  _33
REMARK   15  A    between atoms: _38  and  _40
REMARK   16  A    between atoms: _40  and  _41
REMARK   17  A    between atoms: _40  and  _43
REMARK   18  A    between atoms: _43  and  _44
REMARK   19  A    between atoms: _47  and  _49
REMARK   20  A    between atoms: _49  and  _50
REMARK   21  A    between atoms: _49  and  _52
REMARK   22  A    between atoms: _52  and  _53
REMARK   23  A    between atoms: _56  and  _58
REMARK   24  A    between atoms: _58  and  _59
REMARK   25  A    between atoms: _58  and  _61
REMARK   26  A    between atoms: _61  and  _62
REMARK   27  A    between atoms: _65  and  _67
REMARK   28  A    between atoms: _67  and  _68
REMARK   29  A    between atoms: _67  and  _70
REMARK   30  A    between atoms: _70  and  _71
REMARK   31  A    between atoms: _76  and  _78
REMARK   32  A    between atoms: _78  and  _79
REMARK   33  A    between atoms: _78  and  _81
REMARK   34  A    between atoms: _81  and  _82
REMARK   35  A    between atoms: _87  and  _88
REMARK   36  A    between atoms: _90  and  _92
REMARK   37  A    between atoms: _92  and  _93
REMARK   38  A    between atoms: _92  and  _95
REMARK   39  A    between atoms: _95  and  _96
REMARK   40  A    between atoms: _99  and  _101
REMARK   41  A    between atoms: _101  and  _102
REMARK   42  A    between atoms: _101  and  _104
REMARK   43  A    between atoms: _104  and  _105
REMARK   44  A    between atoms: _110  and  _111
REMARK   45  A    between atoms: _113  and  _115
REMARK   46  A    between atoms: _115  and  _116
REMARK   47  A    between atoms: _119  and  _121
REMARK   48  A    between atoms: _121  and  _122
REMARK   49  A    between atoms: _121  and  _124
REMARK   50  A    between atoms: _124  and  _125
REMARK   51  A    between atoms: _125  and  _126
REMARK   52  A    between atoms: _126  and  _127
REMARK   53  A    between atoms: _127  and  _128
REMARK   54  A    between atoms: _132  and  _134
REMARK   55  A    between atoms: _134  and  _135
REMARK   56  A    between atoms: _134  and  _137
REMARK   57  A    between atoms: _137  and  _138
REMARK   58  A    between atoms: _141  and  _143
REMARK   59  A    between atoms: _143  and  _144
REMARK   60  A    between atoms: _143  and  _146
REMARK   61  A    between atoms: _146  and  _147
REMARK   62  A    between atoms: _149  and  _151
REMARK   63  A    between atoms: _151  and  _152
REMARK   64  A    between atoms: _151  and  _154
REMARK   65  A    between atoms: _154  and  _155
REMARK   66  A    between atoms: _155  and  _265
REMARK   67  A    between atoms: _156  and  _158
REMARK   68  A    between atoms: _158  and  _159
REMARK   69  A    between atoms: _158  and  _161
REMARK   70  A    between atoms: _161  and  _162
REMARK   71  A    between atoms: _162  and  _163
REMARK   72  A    between atoms: _168  and  _170
REMARK   73  A    between atoms: _170  and  _171
REMARK   74  A    between atoms: _173  and  _175
REMARK   75  A    between atoms: _175  and  _176
REMARK   76  A    between atoms: _175  and  _178
REMARK   77  A    between atoms: _178  and  _179
REMARK   78  A    between atoms: _182  and  _184
REMARK   79  A    between atoms: _184  and  _185
REMARK   80  A    between atoms: _184  and  _187
REMARK   81  A    between atoms: _187  and  _188
REMARK   82  A    between atoms: _190  and  _192
REMARK   83  A    between atoms: _192  and  _193
REMARK   84  A    between atoms: _195  and  _197
REMARK   85  A    between atoms: _197  and  _198
REMARK   86  A    between atoms: _200  and  _202
REMARK   87  A    between atoms: _202  and  _203
REMARK   88  A    between atoms: _202  and  _205
REMARK   89  A    between atoms: _205  and  _206
REMARK   90  A    between atoms: _209  and  _211
REMARK   91  A    between atoms: _211  and  _212
REMARK   92  A    between atoms: _211  and  _214
REMARK   93  A    between atoms: _217  and  _219
REMARK   94  A    between atoms: _219  and  _220
REMARK   95  A    between atoms: _219  and  _222
REMARK   96  A    between atoms: _222  and  _223
REMARK   97  A    between atoms: _225  and  _227
REMARK   98  A    between atoms: _227  and  _228
REMARK   99  A    between atoms: _227  and  _230
REMARK  100  A    between atoms: _230  and  _231
REMARK  101  A    between atoms: _241  and  _243
REMARK  102  A    between atoms: _243  and  _244
REMARK  103  A    between atoms: _246  and  _248
REMARK  104  A    between atoms: _248  and  _249
REMARK  105  A    between atoms: _248  and  _251
REMARK  106  A    between atoms: _251  and  _252
REMARK  107  A    between atoms: _254  and  _256
REMARK  108  A    between atoms: _256  and  _257
REMARK  109  A    between atoms: _259  and  _261
REMARK  110  A    between atoms: _261  and  _262
REMARK  111  A    between atoms: _261  and  _264
REMARK  112  A    between atoms: _264  and  _265
REMARK  113  A    between atoms: _266  and  _268
REMARK  114  A    between atoms: _268  and  _269
REMARK  115  A    between atoms: _272  and  _274
REMARK  116  A    between atoms: _274  and  _275
REMARK  117  A    between atoms: _274  and  _277
REMARK  118  A    between atoms: _277  and  _278
REMARK  119  A    between atoms: _278  and  _279
REMARK  120  A    between atoms: _284  and  _286
REMARK  121  A    between atoms: _286  and  _287
REMARK  122  A    between atoms: _286  and  _289
REMARK  123  A    between atoms: _289  and  _290
REMARK  124  A    between atoms: _290  and  _291
REMARK  125  A    between atoms: _291  and  _292
REMARK  126  A    between atoms: _292  and  _293
REMARK  127  A    between atoms: _298  and  _299
REMARK  128  A    between atoms: _304  and  _306
REMARK  129  A    between atoms: _306  and  _307
REMARK  130  A    between atoms: _309  and  _311
REMARK  131  A    between atoms: _311  and  _312
REMARK  132  A    between atoms: _311  and  _314
REMARK  133  A    between atoms: _317  and  _319
REMARK  134  A    between atoms: _319  and  _320
REMARK  135  A    between atoms: _319  and  _322
REMARK  136  A    between atoms: _322  and  _323
REMARK  137  A    between atoms: _328  and  _329
REMARK                            x       y       z     vdW  Elec       q    Type
REMARK                         _______ _______ _______ _____ _____    ______ ____
ROOT
ATOM      1  O   HOH     1      44.052  24.760  56.564  0.00  0.00    +0.000 OA
ENDROOT
TORSDOF 0
REMARK  Name = ../refined-set-2016/1c5s/1c5s_pocket.pdb
REMARK  137 active torsions:
REMARK  status: ('A' for Active; 'I' for Inactive)
REMARK    1  A    between atoms: _1  and  _5
REMARK    2  A    between atoms: _5  and  _6
REMARK    3  A    between atoms: _5  and  _8
REMARK    4  A    between atoms: _8  and  _9
REMARK    5  A    between atoms: _12  and  _14
REMARK    6  A    between atoms: _14  and  _15
REMARK    7  A    between atoms: _14  and  _17
REMARK    8  A    between atoms: _20  and  _22
REMARK    9  A    between atoms: _22  and  _23
REMARK   10  A    between atoms: _22  and  _25
REMARK   11  A    between atoms: _27  and  _29
REMARK   12  A    between atoms: _29  and  _30
REMARK   13  A    between atoms: _29  and  _32
REMARK   14  A    between atoms: _32  and  _33
REMARK   15  A    between atoms: _38  and  _40
REMARK   16  A    between atoms: _40  and  _41
REMARK   17  A    between atoms: _40  and  _43
REMARK   18  A    between atoms: _43  and  _44
REMARK   19  A    between atoms: _47  and  _49
REMARK   20  A    between atoms: _49  and  _50
REMARK   21  A    between atoms: _49  and  _52
REMARK   22  A    between atoms: _52  and  _53
REMARK   23  A    between atoms: _56  and  _58
REMARK   24  A    between atoms: _58  and  _59
REMARK   25  A    between atoms: _58  and  _61
REMARK   26  A    between atoms: _61  and  _62
REMARK   27  A    between atoms: _65  and  _67
REMARK   28  A    between atoms: _67  and  _68
REMARK   29  A    between atoms: _67  and  _70
REMARK   30  A    between atoms: _70  and  _71
REMARK   31  A    between atoms: _76  and  _78
REMARK   32  A    between atoms: _78  and  _79
REMARK   33  A    between atoms: _78  and  _81
REMARK   34  A    between atoms: _81  and  _82
REMARK   35  A    between atoms: _87  and  _88
REMARK   36  A    between atoms: _90  and  _92
REMARK   37  A    between atoms: _92  and  _93
REMARK   38  A    between atoms: _92  and  _95
REMARK   39  A    between atoms: _95  and  _96
REMARK   40  A    between atoms: _99  and  _101
REMARK   41  A    between atoms: _101  and  _102
REMARK   42  A    between atoms: _101  and  _104
REMARK   43  A    between atoms: _104  and  _105
REMARK   44  A    between atoms: _110  and  _111
REMARK   45  A    between atoms: _113  and  _115
REMARK   46  A    between atoms: _115  and  _116
REMARK   47  A    between atoms: _119  and  _121
REMARK   48  A    between atoms: _121  and  _122
REMARK   49  A    between atoms: _121  and  _124
REMARK   50  A    between atoms: _124  and  _125
REMARK   51  A    between atoms: _125  and  _126
REMARK   52  A    between atoms: _126  and  _127
REMARK   53  A    between atoms: _127  and  _128
REMARK   54  A    between atoms: _132  and  _134
REMARK   55  A    between atoms: _134  and  _135
REMARK   56  A    between atoms: _134  and  _137
REMARK   57  A    between atoms: _137  and  _138
REMARK   58  A    between atoms: _141  and  _143
REMARK   59  A    between atoms: _143  and  _144
REMARK   60  A    between atoms: _143  and  _146
REMARK   61  A    between atoms: _146  and  _147
REMARK   62  A    between atoms: _149  and  _151
REMARK   63  A    between atoms: _151  and  _152
REMARK   64  A    between atoms: _151  and  _154
REMARK   65  A    between atoms: _154  and  _155
REMARK   66  A    between atoms: _155  and  _265
REMARK   67  A    between atoms: _156  and  _158
REMARK   68  A    between atoms: _158  and  _159
REMARK   69  A    between atoms: _158  and  _161
REMARK   70  A    between atoms: _161  and  _162
REMARK   71  A    between atoms: _162  and  _163
REMARK   72  A    between atoms: _168  and  _170
REMARK   73  A    between atoms: _170  and  _171
REMARK   74  A    between atoms: _173  and  _175
REMARK   75  A    between atoms: _175  and  _176
REMARK   76  A    between atoms: _175  and  _178
REMARK   77  A    between atoms: _178  and  _179
REMARK   78  A    between atoms: _182  and  _184
REMARK   79  A    between atoms: _184  and  _185
REMARK   80  A    between atoms: _184  and  _187
REMARK   81  A    between atoms: _187  and  _188
REMARK   82  A    between atoms: _190  and  _192
REMARK   83  A    between atoms: _192  and  _193
REMARK   84  A    between atoms: _195  and  _197
REMARK   85  A    between atoms: _197  and  _198
REMARK   86  A    between atoms: _200  and  _202
REMARK   87  A    between atoms: _202  and  _203
REMARK   88  A    between atoms: _202  and  _205
REMARK   89  A    between atoms: _205  and  _206
REMARK   90  A    between atoms: _209  and  _211
REMARK   91  A    between atoms: _211  and  _212
REMARK   92  A    between atoms: _211  and  _214
REMARK   93  A    between atoms: _217  and  _219
REMARK   94  A    between atoms: _219  and  _220
REMARK   95  A    between atoms: _219  and  _222
REMARK   96  A    between atoms: _222  and  _223
REMARK   97  A    between atoms: _225  and  _227
REMARK   98  A    between atoms: _227  and  _228
REMARK   99  A    between atoms: _227  and  _230
REMARK  100  A    between atoms: _230  and  _231
REMARK  101  A    between atoms: _241  and  _243
REMARK  102  A    between atoms: _243  and  _244
REMARK  103  A    between atoms: _246  and  _248
REMARK  104  A    between atoms: _248  and  _249
REMARK  105  A    between atoms: _248  and  _251
REMARK  106  A    between atoms: _251  and  _252
REMARK  107  A    between atoms: _254  and  _256
REMARK  108  A    between atoms: _256  and  _257
REMARK  109  A    between atoms: _259  and  _261
REMARK  110  A    between atoms: _261  and  _262
REMARK  111  A    between atoms: _261  and  _264
REMARK  112  A    between atoms: _264  and  _265
REMARK  113  A    between atoms: _266  and  _268
REMARK  114  A    between atoms: _268  and  _269
REMARK  115  A    between atoms: _272  and  _274
REMARK  116  A    between atoms: _274  and  _275
REMARK  117  A    between atoms: _274  and  _277
REMARK  118  A    between atoms: _277  and  _278
REMARK  119  A    between atoms: _278  and  _279
REMARK  120  A    between atoms: _284  and  _286
REMARK  121  A    between atoms: _286  and  _287
REMARK  122  A    between atoms: _286  and  _289
REMARK  123  A    between atoms: _289  and  _290
REMARK  124  A    between atoms: _290  and  _291
REMARK  125  A    between atoms: _291  and  _292
REMARK  126  A    between atoms: _292  and  _293
REMARK  127  A    between atoms: _298  and  _299
REMARK  128  A    between atoms: _304  and  _306
REMARK  129  A    between atoms: _306  and  _307
REMARK  130  A    between atoms: _309  and  _311
REMARK  131  A    between atoms: _311  and  _312
REMARK  132  A    between atoms: _311  and  _314
REMARK  133  A    between atoms: _317  and  _319
REMARK  134  A    between atoms: _319  and  _320
REMARK  135  A    between atoms: _319  and  _322
REMARK  136  A    between atoms: _322  and  _323
REMARK  137  A    between atoms: _328  and  _329
REMARK                            x       y       z     vdW  Elec       q    Type
REMARK                         _______ _______ _______ _____ _____    ______ ____
ROOT
ATOM      1  O   HOH     1      47.198  28.972  47.585  0.00  0.00    +0.000 OA
ENDROOT
TORSDOF 0
REMARK  Name = ../refined-set-2016/1c5s/1c5s_pocket.pdb
REMARK  137 active torsions:
REMARK  status: ('A' for Active; 'I' for Inactive)
REMARK    1  A    between atoms: _1  and  _5
REMARK    2  A    between atoms: _5  and  _6
REMARK    3  A    between atoms: _5  and  _8
REMARK    4  A    between atoms: _8  and  _9
REMARK    5  A    between atoms: _12  and  _14
REMARK    6  A    between atoms: _14  and  _15
REMARK    7  A    between atoms: _14  and  _17
REMARK    8  A    between atoms: _20  and  _22
REMARK    9  A    between atoms: _22  and  _23
REMARK   10  A    between atoms: _22  and  _25
REMARK   11  A    between atoms: _27  and  _29
REMARK   12  A    between atoms: _29  and  _30
REMARK   13  A    between atoms: _29  and  _32
REMARK   14  A    between atoms: _32  and  _33
REMARK   15  A    between atoms: _38  and  _40
REMARK   16  A    between atoms: _40  and  _41
REMARK   17  A    between atoms: _40  and  _43
REMARK   18  A    between atoms: _43  and  _44
REMARK   19  A    between atoms: _47  and  _49
REMARK   20  A    between atoms: _49  and  _50
REMARK   21  A    between atoms: _49  and  _52
REMARK   22  A    between atoms: _52  and  _53
REMARK   23  A    between atoms: _56  and  _58
REMARK   24  A    between atoms: _58  and  _59
REMARK   25  A    between atoms: _58  and  _61
REMARK   26  A    between atoms: _61  and  _62
REMARK   27  A    between atoms: _65  and  _67
REMARK   28  A    between atoms: _67  and  _68
REMARK   29  A    between atoms: _67  and  _70
REMARK   30  A    between atoms: _70  and  _71
REMARK   31  A    between atoms: _76  and  _78
REMARK   32  A    between atoms: _78  and  _79
REMARK   33  A    between atoms: _78  and  _81
REMARK   34  A    between atoms: _81  and  _82
REMARK   35  A    between atoms: _87  and  _88
REMARK   36  A    between atoms: _90  and  _92
REMARK   37  A    between atoms: _92  and  _93
REMARK   38  A    between atoms: _92  and  _95
REMARK   39  A    between atoms: _95  and  _96
REMARK   40  A    between atoms: _99  and  _101
REMARK   41  A    between atoms: _101  and  _102
REMARK   42  A    between atoms: _101  and  _104
REMARK   43  A    between atoms: _104  and  _105
REMARK   44  A    between atoms: _110  and  _111
REMARK   45  A    between atoms: _113  and  _115
REMARK   46  A    between atoms: _115  and  _116
REMARK   47  A    between atoms: _119  and  _121
REMARK   48  A    between atoms: _121  and  _122
REMARK   49  A    between atoms: _121  and  _124
REMARK   50  A    between atoms: _124  and  _125
REMARK   51  A    between atoms: _125  and  _126
REMARK   52  A    between atoms: _126  and  _127
REMARK   53  A    between atoms: _127  and  _128
REMARK   54  A    between atoms: _132  and  _134
REMARK   55  A    between atoms: _134  and  _135
REMARK   56  A    between atoms: _134  and  _137
REMARK   57  A    between atoms: _137  and  _138
REMARK   58  A    between atoms: _141  and  _143
REMARK   59  A    between atoms: _143  and  _144
REMARK   60  A    between atoms: _143  and  _146
REMARK   61  A    between atoms: _146  and  _147
REMARK   62  A    between atoms: _149  and  _151
REMARK   63  A    between atoms: _151  and  _152
REMARK   64  A    between atoms: _151  and  _154
REMARK   65  A    between atoms: _154  and  _155
REMARK   66  A    between atoms: _155  and  _265
REMARK   67  A    between atoms: _156  and  _158
REMARK   68  A    between atoms: _158  and  _159
REMARK   69  A    between atoms: _158  and  _161
REMARK   70  A    between atoms: _161  and  _162
REMARK   71  A    between atoms: _162  and  _163
REMARK   72  A    between atoms: _168  and  _170
REMARK   73  A    between atoms: _170  and  _171
REMARK   74  A    between atoms: _173  and  _175
REMARK   75  A    between atoms: _175  and  _176
REMARK   76  A    between atoms: _175  and  _178
REMARK   77  A    between atoms: _178  and  _179
REMARK   78  A    between atoms: _182  and  _184
REMARK   79  A    between atoms: _184  and  _185
REMARK   80  A    between atoms: _184  and  _187
REMARK   81  A    between atoms: _187  and  _188
REMARK   82  A    between atoms: _190  and  _192
REMARK   83  A    between atoms: _192  and  _193
REMARK   84  A    between atoms: _195  and  _197
REMARK   85  A    between atoms: _197  and  _198
REMARK   86  A    between atoms: _200  and  _202
REMARK   87  A    between atoms: _202  and  _203
REMARK   88  A    between atoms: _202  and  _205
REMARK   89  A    between atoms: _205  and  _206
REMARK   90  A    between atoms: _209  and  _211
REMARK   91  A    between atoms: _211  and  _212
REMARK   92  A    between atoms: _211  and  _214
REMARK   93  A    between atoms: _217  and  _219
REMARK   94  A    between atoms: _219  and  _220
REMARK   95  A    between atoms: _219  and  _222
REMARK   96  A    between atoms: _222  and  _223
REMARK   97  A    between atoms: _225  and  _227
REMARK   98  A    between atoms: _227  and  _228
REMARK   99  A    between atoms: _227  and  _230
REMARK  100  A    between atoms: _230  and  _231
REMARK  101  A    between atoms: _241  and  _243
REMARK  102  A    between atoms: _243  and  _244
REMARK  103  A    between atoms: _246  and  _248
REMARK  104  A    between atoms: _248  and  _249
REMARK  105  A    between atoms: _248  and  _251
REMARK  106  A    between atoms: _251  and  _252
REMARK  107  A    between atoms: _254  and  _256
REMARK  108  A    between atoms: _256  and  _257
REMARK  109  A    between atoms: _259  and  _261
REMARK  110  A    between atoms: _261  and  _262
REMARK  111  A    between atoms: _261  and  _264
REMARK  112  A    between atoms: _264  and  _265
REMARK  113  A    between atoms: _266  and  _268
REMARK  114  A    between atoms: _268  and  _269
REMARK  115  A    between atoms: _272  and  _274
REMARK  116  A    between atoms: _274  and  _275
REMARK  117  A    between atoms: _274  and  _277
REMARK  118  A    between atoms: _277  and  _278
REMARK  119  A    between atoms: _278  and  _279
REMARK  120  A    between atoms: _284  and  _286
REMARK  121  A    between atoms: _286  and  _287
REMARK  122  A    between atoms: _286  and  _289
REMARK  123  A    between atoms: _289  and  _290
REMARK  124  A    between atoms: _290  and  _291
REMARK  125  A    between atoms: _291  and  _292
REMARK  126  A    between atoms: _292  and  _293
REMARK  127  A    between atoms: _298  and  _299
REMARK  128  A    between atoms: _304  and  _306
REMARK  129  A    between atoms: _306  and  _307
REMARK  130  A    between atoms: _309  and  _311
REMARK  131  A    between atoms: _311  and  _312
REMARK  132  A    between atoms: _311  and  _314
REMARK  133  A    between atoms: _317  and  _319
REMARK  134  A    between atoms: _319  and  _320
REMARK  135  A    between atoms: _319  and  _322
REMARK  136  A    between atoms: _322  and  _323
REMARK  137  A    between atoms: _328  and  _329
REMARK                            x       y       z     vdW  Elec       q    Type
REMARK                         _______ _______ _______ _____ _____    ______ ____
ROOT
ATOM      1  O   HOH     1      41.896  26.382  50.093  0.00  0.00    +0.000 OA
ENDROOT
TORSDOF 0
REMARK  Name = ../refined-set-2016/1c5s/1c5s_pocket.pdb
REMARK  137 active torsions:
REMARK  status: ('A' for Active; 'I' for Inactive)
REMARK    1  A    between atoms: _1  and  _5
REMARK    2  A    between atoms: _5  and  _6
REMARK    3  A    between atoms: _5  and  _8
REMARK    4  A    between atoms: _8  and  _9
REMARK    5  A    between atoms: _12  and  _14
REMARK    6  A    between atoms: _14  and  _15
REMARK    7  A    between atoms: _14  and  _17
REMARK    8  A    between atoms: _20  and  _22
REMARK    9  A    between atoms: _22  and  _23
REMARK   10  A    between atoms: _22  and  _25
REMARK   11  A    between atoms: _27  and  _29
REMARK   12  A    between atoms: _29  and  _30
REMARK   13  A    between atoms: _29  and  _32
REMARK   14  A    between atoms: _32  and  _33
REMARK   15  A    between atoms: _38  and  _40
REMARK   16  A    between atoms: _40  and  _41
REMARK   17  A    between atoms: _40  and  _43
REMARK   18  A    between atoms: _43  and  _44
REMARK   19  A    between atoms: _47  and  _49
REMARK   20  A    between atoms: _49  and  _50
REMARK   21  A    between atoms: _49  and  _52
REMARK   22  A    between atoms: _52  and  _53
REMARK   23  A    between atoms: _56  and  _58
REMARK   24  A    between atoms: _58  and  _59
REMARK   25  A    between atoms: _58  and  _61
REMARK   26  A    between atoms: _61  and  _62
REMARK   27  A    between atoms: _65  and  _67
REMARK   28  A    between atoms: _67  and  _68
REMARK   29  A    between atoms: _67  and  _70
REMARK   30  A    between atoms: _70  and  _71
REMARK   31  A    between atoms: _76  and  _78
REMARK   32  A    between atoms: _78  and  _79
REMARK   33  A    between atoms: _78  and  _81
REMARK   34  A    between atoms: _81  and  _82
REMARK   35  A    between atoms: _87  and  _88
REMARK   36  A    between atoms: _90  and  _92
REMARK   37  A    between atoms: _92  and  _93
REMARK   38  A    between atoms: _92  and  _95
REMARK   39  A    between atoms: _95  and  _96
REMARK   40  A    between atoms: _99  and  _101
REMARK   41  A    between atoms: _101  and  _102
REMARK   42  A    between atoms: _101  and  _104
REMARK   43  A    between atoms: _104  and  _105
REMARK   44  A    between atoms: _110  and  _111
REMARK   45  A    between atoms: _113  and  _115
REMARK   46  A    between atoms: _115  and  _116
REMARK   47  A    between atoms: _119  and  _121
REMARK   48  A    between atoms: _121  and  _122
REMARK   49  A    between atoms: _121  and  _124
REMARK   50  A    between atoms: _124  and  _125
REMARK   51  A    between atoms: _125  and  _126
REMARK   52  A    between atoms: _126  and  _127
REMARK   53  A    between atoms: _127  and  _128
REMARK   54  A    between atoms: _132  and  _134
REMARK   55  A    between atoms: _134  and  _135
REMARK   56  A    between atoms: _134  and  _137
REMARK   57  A    between atoms: _137  and  _138
REMARK   58  A    between atoms: _141  and  _143
REMARK   59  A    between atoms: _143  and  _144
REMARK   60  A    between atoms: _143  and  _146
REMARK   61  A    between atoms: _146  and  _147
REMARK   62  A    between atoms: _149  and  _151
REMARK   63  A    between atoms: _151  and  _152
REMARK   64  A    between atoms: _151  and  _154
REMARK   65  A    between atoms: _154  and  _155
REMARK   66  A    between atoms: _155  and  _265
REMARK   67  A    between atoms: _156  and  _158
REMARK   68  A    between atoms: _158  and  _159
REMARK   69  A    between atoms: _158  and  _161
REMARK   70  A    between atoms: _161  and  _162
REMARK   71  A    between atoms: _162  and  _163
REMARK   72  A    between atoms: _168  and  _170
REMARK   73  A    between atoms: _170  and  _171
REMARK   74  A    between atoms: _173  and  _175
REMARK   75  A    between atoms: _175  and  _176
REMARK   76  A    between atoms: _175  and  _178
REMARK   77  A    between atoms: _178  and  _179
REMARK   78  A    between atoms: _182  and  _184
REMARK   79  A    between atoms: _184  and  _185
REMARK   80  A    between atoms: _184  and  _187
REMARK   81  A    between atoms: _187  and  _188
REMARK   82  A    between atoms: _190  and  _192
REMARK   83  A    between atoms: _192  and  _193
REMARK   84  A    between atoms: _195  and  _197
REMARK   85  A    between atoms: _197  and  _198
REMARK   86  A    between atoms: _200  and  _202
REMARK   87  A    between atoms: _202  and  _203
REMARK   88  A    between atoms: _202  and  _205
REMARK   89  A    between atoms: _205  and  _206
REMARK   90  A    between atoms: _209  and  _211
REMARK   91  A    between atoms: _211  and  _212
REMARK   92  A    between atoms: _211  and  _214
REMARK   93  A    between atoms: _217  and  _219
REMARK   94  A    between atoms: _219  and  _220
REMARK   95  A    between atoms: _219  and  _222
REMARK   96  A    between atoms: _222  and  _223
REMARK   97  A    between atoms: _225  and  _227
REMARK   98  A    between atoms: _227  and  _228
REMARK   99  A    between atoms: _227  and  _230
REMARK  100  A    between atoms: _230  and  _231
REMARK  101  A    between atoms: _241  and  _243
REMARK  102  A    between atoms: _243  and  _244
REMARK  103  A    between atoms: _246  and  _248
REMARK  104  A    between atoms: _248  and  _249
REMARK  105  A    between atoms: _248  and  _251
REMARK  106  A    between atoms: _251  and  _252
REMARK  107  A    between atoms: _254  and  _256
REMARK  108  A    between atoms: _256  and  _257
REMARK  109  A    between atoms: _259  and  _261
REMARK  110  A    between atoms: _261  and  _262
REMARK  111  A    between atoms: _261  and  _264
REMARK  112  A    between atoms: _264  and  _265
REMARK  113  A    between atoms: _266  and  _268
REMARK  114  A    between atoms: _268  and  _269
REMARK  115  A    between atoms: _272  and  _274
REMARK  116  A    between atoms: _274  and  _275
REMARK  117  A    between atoms: _274  and  _277
REMARK  118  A    between atoms: _277  and  _278
REMARK  119  A    between atoms: _278  and  _279
REMARK  120  A    between atoms: _284  and  _286
REMARK  121  A    between atoms: _286  and  _287
REMARK  122  A    between atoms: _286  and  _289
REMARK  123  A    between atoms: _289  and  _290
REMARK  124  A    between atoms: _290  and  _291
REMARK  125  A    between atoms: _291  and  _292
REMARK  126  A    between atoms: _292  and  _293
REMARK  127  A    between atoms: _298  and  _299
REMARK  128  A    between atoms: _304  and  _306
REMARK  129  A    between atoms: _306  and  _307
REMARK  130  A    between atoms: _309  and  _311
REMARK  131  A    between atoms: _311  and  _312
REMARK  132  A    between atoms: _311  and  _314
REMARK  133  A    between atoms: _317  and  _319
REMARK  134  A    between atoms: _319  and  _320
REMARK  135  A    between atoms: _319  and  _322
REMARK  136  A    between atoms: _322  and  _323
REMARK  137  A    between atoms: _328  and  _329
REMARK                            x       y       z     vdW  Elec       q    Type
REMARK                         _______ _______ _______ _____ _____    ______ ____
ROOT
ATOM      1  O   HOH     1      46.208  24.502  44.217  0.00  0.00    +0.000 OA
ENDROOT
TORSDOF 0
