REMARK  Name = ../refined-set-2016/2x8z/2x8z_pocket.pdb
REMARK  171 active torsions:
REMARK  status: ('A' for Active; 'I' for Inactive)
REMARK    1  A    between atoms: _1  and  _3
REMARK    2  A    between atoms: _3  and  _4
REMARK    3  A    between atoms: _3  and  _6
REMARK    4  A    between atoms: _6  and  _7
REMARK    5  A    between atoms: _7  and  _8
REMARK    6  A    between atoms: _11  and  _13
REMARK    7  A    between atoms: _13  and  _14
REMARK    8  A    between atoms: _13  and  _16
REMARK    9  A    between atoms: _16  and  _17
REMARK   10  A    between atoms: _22  and  _24
REMARK   11  A    between atoms: _24  and  _25
REMARK   12  A    between atoms: _24  and  _27
REMARK   13  A    between atoms: _27  and  _28
REMARK   14  A    between atoms: _38  and  _40
REMARK   15  A    between atoms: _40  and  _41
REMARK   16  A    between atoms: _40  and  _43
REMARK   17  A    between atoms: _43  and  _44
REMARK   18  A    between atoms: _44  and  _45
REMARK   19  A    between atoms: _50  and  _52
REMARK   20  A    between atoms: _52  and  _53
REMARK   21  A    between atoms: _52  and  _55
REMARK   22  A    between atoms: _55  and  _56
REMARK   23  A    between atoms: _56  and  _57
REMARK   24  A    between atoms: _62  and  _64
REMARK   25  A    between atoms: _64  and  _65
REMARK   26  A    between atoms: _64  and  _67
REMARK   27  A    between atoms: _69  and  _71
REMARK   28  A    between atoms: _71  and  _72
REMARK   29  A    between atoms: _71  and  _74
REMARK   30  A    between atoms: _74  and  _75
REMARK   31  A    between atoms: _80  and  _82
REMARK   32  A    between atoms: _82  and  _83
REMARK   33  A    between atoms: _86  and  _88
REMARK   34  A    between atoms: _88  and  _89
REMARK   35  A    between atoms: _88  and  _91
REMARK   36  A    between atoms: _91  and  _92
REMARK   37  A    between atoms: _94  and  _96
REMARK   38  A    between atoms: _96  and  _97
REMARK   39  A    between atoms: _100  and  _102
REMARK   40  A    between atoms: _102  and  _103
REMARK   41  A    between atoms: _102  and  _105
REMARK   42  A    between atoms: _105  and  _106
REMARK   43  A    between atoms: _106  and  _107
REMARK   44  A    between atoms: _112  and  _114
REMARK   45  A    between atoms: _114  and  _115
REMARK   46  A    between atoms: _114  and  _117
REMARK   47  A    between atoms: _117  and  _118
REMARK   48  A    between atoms: _118  and  _119
REMARK   49  A    between atoms: _124  and  _126
REMARK   50  A    between atoms: _126  and  _127
REMARK   51  A    between atoms: _126  and  _129
REMARK   52  A    between atoms: _129  and  _130
REMARK   53  A    between atoms: _136  and  _138
REMARK   54  A    between atoms: _138  and  _139
REMARK   55  A    between atoms: _138  and  _141
REMARK   56  A    between atoms: _141  and  _142
REMARK   57  A    between atoms: _145  and  _147
REMARK   58  A    between atoms: _147  and  _148
REMARK   59  A    between atoms: _147  and  _150
REMARK   60  A    between atoms: _153  and  _155
REMARK   61  A    between atoms: _155  and  _156
REMARK   62  A    between atoms: _155  and  _158
REMARK   63  A    between atoms: _158  and  _159
REMARK   64  A    between atoms: _163  and  ZN_417
REMARK   65  A    between atoms: _164  and  _166
REMARK   66  A    between atoms: _166  and  _167
REMARK   67  A    between atoms: _166  and  _169
REMARK   68  A    between atoms: _169  and  _170
REMARK   69  A    between atoms: _170  and  _171
REMARK   70  A    between atoms: _174  and  _176
REMARK   71  A    between atoms: _176  and  _177
REMARK   72  A    between atoms: _176  and  _179
REMARK   73  A    between atoms: _179  and  _180
REMARK   74  A    between atoms: _184  and  ZN_417
REMARK   75  A    between atoms: _185  and  _187
REMARK   76  A    between atoms: _187  and  _188
REMARK   77  A    between atoms: _187  and  _190
REMARK   78  A    between atoms: _190  and  _191
REMARK   79  A    between atoms: _196  and  _198
REMARK   80  A    between atoms: _198  and  _199
REMARK   81  A    between atoms: _198  and  _201
REMARK   82  A    between atoms: _201  and  _202
REMARK   83  A    between atoms: _202  and  _203
REMARK   84  A    between atoms: _203  and  _204
REMARK   85  A    between atoms: _204  and  ZN_417
REMARK   86  A    between atoms: _206  and  _208
REMARK   87  A    between atoms: _208  and  _209
REMARK   88  A    between atoms: _208  and  _211
REMARK   89  A    between atoms: _211  and  _212
REMARK   90  A    between atoms: _215  and  _217
REMARK   91  A    between atoms: _217  and  _218
REMARK   92  A    between atoms: _217  and  _220
REMARK   93  A    between atoms: _220  and  _221
REMARK   94  A    between atoms: _224  and  _226
REMARK   95  A    between atoms: _226  and  _227
REMARK   96  A    between atoms: _226  and  _229
REMARK   97  A    between atoms: _229  and  _230
REMARK   98  A    between atoms: _230  and  _231
REMARK   99  A    between atoms: _231  and  _232
REMARK  100  A    between atoms: _232  and  _233
REMARK  101  A    between atoms: _237  and  _239
REMARK  102  A    between atoms: _239  and  _240
REMARK  103  A    between atoms: _239  and  _242
REMARK  104  A    between atoms: _242  and  _243
REMARK  105  A    between atoms: _249  and  _251
REMARK  106  A    between atoms: _251  and  _252
REMARK  107  A    between atoms: _251  and  _254
REMARK  108  A    between atoms: _254  and  _255
REMARK  109  A    between atoms: _261  and  _263
REMARK  110  A    between atoms: _263  and  _264
REMARK  111  A    between atoms: _267  and  _269
REMARK  112  A    between atoms: _269  and  _270
REMARK  113  A    between atoms: _269  and  _272
REMARK  114  A    between atoms: _272  and  _273
REMARK  115  A    between atoms: _273  and  _274
REMARK  116  A    between atoms: _276  and  _278
REMARK  117  A    between atoms: _278  and  _279
REMARK  118  A    between atoms: _278  and  _281
REMARK  119  A    between atoms: _281  and  _282
REMARK  120  A    between atoms: _282  and  _283
REMARK  121  A    between atoms: _283  and  _284
REMARK  122  A    between atoms: _284  and  _285
REMARK  123  A    between atoms: _289  and  _291
REMARK  124  A    between atoms: _291  and  _292
REMARK  125  A    between atoms: _291  and  _294
REMARK  126  A    between atoms: _294  and  _295
REMARK  127  A    between atoms: _300  and  _301
REMARK  128  A    between atoms: _303  and  _305
REMARK  129  A    between atoms: _305  and  _306
REMARK  130  A    between atoms: _305  and  _308
REMARK  131  A    between atoms: _308  and  _309
REMARK  132  A    between atoms: _314  and  _316
REMARK  133  A    between atoms: _316  and  _317
REMARK  134  A    between atoms: _316  and  _319
REMARK  135  A    between atoms: _319  and  _320
REMARK  136  A    between atoms: _323  and  _325
REMARK  137  A    between atoms: _325  and  _326
REMARK  138  A    between atoms: _325  and  _328
REMARK  139  A    between atoms: _331  and  _333
REMARK  140  A    between atoms: _333  and  _334
REMARK  141  A    between atoms: _333  and  _336
REMARK  142  A    between atoms: _336  and  _337
REMARK  143  A    between atoms: _342  and  _343
REMARK  144  A    between atoms: _345  and  _347
REMARK  145  A    between atoms: _347  and  _348
REMARK  146  A    between atoms: _347  and  _350
REMARK  147  A    between atoms: _350  and  _351
REMARK  148  A    between atoms: _351  and  _352
REMARK  149  A    between atoms: _352  and  _353
REMARK  150  A    between atoms: _362  and  _364
REMARK  151  A    between atoms: _364  and  _365
REMARK  152  A    between atoms: _364  and  _367
REMARK  153  A    between atoms: _367  and  _368
REMARK  154  A    between atoms: _373  and  _374
REMARK  155  A    between atoms: _376  and  _378
REMARK  156  A    between atoms: _378  and  _379
REMARK  157  A    between atoms: _378  and  _381
REMARK  158  A    between atoms: _381  and  _382
REMARK  159  A    between atoms: _385  and  _387
REMARK  160  A    between atoms: _387  and  _388
REMARK  161  A    between atoms: _387  and  _390
REMARK  162  A    between atoms: _390  and  _391
REMARK  163  A    between atoms: _393  and  _395
REMARK  164  A    between atoms: _395  and  _396
REMARK  165  A    between atoms: _395  and  _398
REMARK  166  A    between atoms: _398  and  _399
REMARK  167  A    between atoms: _405  and  _407
REMARK  168  A    between atoms: _407  and  _408
REMARK  169  A    between atoms: _407  and  _410
REMARK  170  A    between atoms: _410  and  _411
REMARK  171  A    between atoms: _411  and  _412
REMARK                            x       y       z     vdW  Elec       q    Type
REMARK                         _______ _______ _______ _____ _____    ______ ____
ROOT
ATOM      1  CA  GLU A   1      30.640  10.213 -29.940  0.00  0.00    +0.134 C 
ENDROOT
BRANCH   1   2
ATOM      2  N   GLU A   1      30.636   9.433 -28.703  0.00  0.00    -0.239 NA
ATOM      3  H   GLU A   1      30.024   8.595 -28.638  0.00  0.00    +0.142 HD
ENDBRANCH   1   2
BRANCH   1   4
ATOM      4  C   GLU A   1      30.156  11.648 -29.750  0.00  0.00    +0.224 C 
ATOM      5  O   GLU A   1      30.619  12.554 -30.444  0.00  0.00    -0.287 OA
ENDBRANCH   1   4
BRANCH   1   6
ATOM      6  CB  GLU A   1      29.819   9.525 -31.026  0.00  0.00    +0.037 C 
BRANCH   6   7
ATOM      7  CG  GLU A   1      30.550   8.379 -31.703  0.00  0.00    +0.116 C 
BRANCH   7   8
ATOM      8  CD  GLU A   1      29.918   7.976 -33.023  0.00  0.00    +0.365 C 
ATOM      9  OE2 GLU A   1      28.669   7.920 -33.101  0.00  0.00    -0.246 OA
ATOM     10  OE1 GLU A   1      30.675   7.717 -33.985  0.00  0.00    -0.246 OA
ENDBRANCH   7   8
ENDBRANCH   6   7
ENDBRANCH   1   6
TORSDOF 5
REMARK  Name = ../refined-set-2016/2x8z/2x8z_pocket.pdb
REMARK  171 active torsions:
REMARK  status: ('A' for Active; 'I' for Inactive)
REMARK    1  A    between atoms: _1  and  _3
REMARK    2  A    between atoms: _3  and  _4
REMARK    3  A    between atoms: _3  and  _6
REMARK    4  A    between atoms: _6  and  _7
REMARK    5  A    between atoms: _7  and  _8
REMARK    6  A    between atoms: _11  and  _13
REMARK    7  A    between atoms: _13  and  _14
REMARK    8  A    between atoms: _13  and  _16
REMARK    9  A    between atoms: _16  and  _17
REMARK   10  A    between atoms: _22  and  _24
REMARK   11  A    between atoms: _24  and  _25
REMARK   12  A    between atoms: _24  and  _27
REMARK   13  A    between atoms: _27  and  _28
REMARK   14  A    between atoms: _38  and  _40
REMARK   15  A    between atoms: _40  and  _41
REMARK   16  A    between atoms: _40  and  _43
REMARK   17  A    between atoms: _43  and  _44
REMARK   18  A    between atoms: _44  and  _45
REMARK   19  A    between atoms: _50  and  _52
REMARK   20  A    between atoms: _52  and  _53
REMARK   21  A    between atoms: _52  and  _55
REMARK   22  A    between atoms: _55  and  _56
REMARK   23  A    between atoms: _56  and  _57
REMARK   24  A    between atoms: _62  and  _64
REMARK   25  A    between atoms: _64  and  _65
REMARK   26  A    between atoms: _64  and  _67
REMARK   27  A    between atoms: _69  and  _71
REMARK   28  A    between atoms: _71  and  _72
REMARK   29  A    between atoms: _71  and  _74
REMARK   30  A    between atoms: _74  and  _75
REMARK   31  A    between atoms: _80  and  _82
REMARK   32  A    between atoms: _82  and  _83
REMARK   33  A    between atoms: _86  and  _88
REMARK   34  A    between atoms: _88  and  _89
REMARK   35  A    between atoms: _88  and  _91
REMARK   36  A    between atoms: _91  and  _92
REMARK   37  A    between atoms: _94  and  _96
REMARK   38  A    between atoms: _96  and  _97
REMARK   39  A    between atoms: _100  and  _102
REMARK   40  A    between atoms: _102  and  _103
REMARK   41  A    between atoms: _102  and  _105
REMARK   42  A    between atoms: _105  and  _106
REMARK   43  A    between atoms: _106  and  _107
REMARK   44  A    between atoms: _112  and  _114
REMARK   45  A    between atoms: _114  and  _115
REMARK   46  A    between atoms: _114  and  _117
REMARK   47  A    between atoms: _117  and  _118
REMARK   48  A    between atoms: _118  and  _119
REMARK   49  A    between atoms: _124  and  _126
REMARK   50  A    between atoms: _126  and  _127
REMARK   51  A    between atoms: _126  and  _129
REMARK   52  A    between atoms: _129  and  _130
REMARK   53  A    between atoms: _136  and  _138
REMARK   54  A    between atoms: _138  and  _139
REMARK   55  A    between atoms: _138  and  _141
REMARK   56  A    between atoms: _141  and  _142
REMARK   57  A    between atoms: _145  and  _147
REMARK   58  A    between atoms: _147  and  _148
REMARK   59  A    between atoms: _147  and  _150
REMARK   60  A    between atoms: _153  and  _155
REMARK   61  A    between atoms: _155  and  _156
REMARK   62  A    between atoms: _155  and  _158
REMARK   63  A    between atoms: _158  and  _159
REMARK   64  A    between atoms: _163  and  ZN_417
REMARK   65  A    between atoms: _164  and  _166
REMARK   66  A    between atoms: _166  and  _167
REMARK   67  A    between atoms: _166  and  _169
REMARK   68  A    between atoms: _169  and  _170
REMARK   69  A    between atoms: _170  and  _171
REMARK   70  A    between atoms: _174  and  _176
REMARK   71  A    between atoms: _176  and  _177
REMARK   72  A    between atoms: _176  and  _179
REMARK   73  A    between atoms: _179  and  _180
REMARK   74  A    between atoms: _184  and  ZN_417
REMARK   75  A    between atoms: _185  and  _187
REMARK   76  A    between atoms: _187  and  _188
REMARK   77  A    between atoms: _187  and  _190
REMARK   78  A    between atoms: _190  and  _191
REMARK   79  A    between atoms: _196  and  _198
REMARK   80  A    between atoms: _198  and  _199
REMARK   81  A    between atoms: _198  and  _201
REMARK   82  A    between atoms: _201  and  _202
REMARK   83  A    between atoms: _202  and  _203
REMARK   84  A    between atoms: _203  and  _204
REMARK   85  A    between atoms: _204  and  ZN_417
REMARK   86  A    between atoms: _206  and  _208
REMARK   87  A    between atoms: _208  and  _209
REMARK   88  A    between atoms: _208  and  _211
REMARK   89  A    between atoms: _211  and  _212
REMARK   90  A    between atoms: _215  and  _217
REMARK   91  A    between atoms: _217  and  _218
REMARK   92  A    between atoms: _217  and  _220
REMARK   93  A    between atoms: _220  and  _221
REMARK   94  A    between atoms: _224  and  _226
REMARK   95  A    between atoms: _226  and  _227
REMARK   96  A    between atoms: _226  and  _229
REMARK   97  A    between atoms: _229  and  _230
REMARK   98  A    between atoms: _230  and  _231
REMARK   99  A    between atoms: _231  and  _232
REMARK  100  A    between atoms: _232  and  _233
REMARK  101  A    between atoms: _237  and  _239
REMARK  102  A    between atoms: _239  and  _240
REMARK  103  A    between atoms: _239  and  _242
REMARK  104  A    between atoms: _242  and  _243
REMARK  105  A    between atoms: _249  and  _251
REMARK  106  A    between atoms: _251  and  _252
REMARK  107  A    between atoms: _251  and  _254
REMARK  108  A    between atoms: _254  and  _255
REMARK  109  A    between atoms: _261  and  _263
REMARK  110  A    between atoms: _263  and  _264
REMARK  111  A    between atoms: _267  and  _269
REMARK  112  A    between atoms: _269  and  _270
REMARK  113  A    between atoms: _269  and  _272
REMARK  114  A    between atoms: _272  and  _273
REMARK  115  A    between atoms: _273  and  _274
REMARK  116  A    between atoms: _276  and  _278
REMARK  117  A    between atoms: _278  and  _279
REMARK  118  A    between atoms: _278  and  _281
REMARK  119  A    between atoms: _281  and  _282
REMARK  120  A    between atoms: _282  and  _283
REMARK  121  A    between atoms: _283  and  _284
REMARK  122  A    between atoms: _284  and  _285
REMARK  123  A    between atoms: _289  and  _291
REMARK  124  A    between atoms: _291  and  _292
REMARK  125  A    between atoms: _291  and  _294
REMARK  126  A    between atoms: _294  and  _295
REMARK  127  A    between atoms: _300  and  _301
REMARK  128  A    between atoms: _303  and  _305
REMARK  129  A    between atoms: _305  and  _306
REMARK  130  A    between atoms: _305  and  _308
REMARK  131  A    between atoms: _308  and  _309
REMARK  132  A    between atoms: _314  and  _316
REMARK  133  A    between atoms: _316  and  _317
REMARK  134  A    between atoms: _316  and  _319
REMARK  135  A    between atoms: _319  and  _320
REMARK  136  A    between atoms: _323  and  _325
REMARK  137  A    between atoms: _325  and  _326
REMARK  138  A    between atoms: _325  and  _328
REMARK  139  A    between atoms: _331  and  _333
REMARK  140  A    between atoms: _333  and  _334
REMARK  141  A    between atoms: _333  and  _336
REMARK  142  A    between atoms: _336  and  _337
REMARK  143  A    between atoms: _342  and  _343
REMARK  144  A    between atoms: _345  and  _347
REMARK  145  A    between atoms: _347  and  _348
REMARK  146  A    between atoms: _347  and  _350
REMARK  147  A    between atoms: _350  and  _351
REMARK  148  A    between atoms: _351  and  _352
REMARK  149  A    between atoms: _352  and  _353
REMARK  150  A    between atoms: _362  and  _364
REMARK  151  A    between atoms: _364  and  _365
REMARK  152  A    between atoms: _364  and  _367
REMARK  153  A    between atoms: _367  and  _368
REMARK  154  A    between atoms: _373  and  _374
REMARK  155  A    between atoms: _376  and  _378
REMARK  156  A    between atoms: _378  and  _379
REMARK  157  A    between atoms: _378  and  _381
REMARK  158  A    between atoms: _381  and  _382
REMARK  159  A    between atoms: _385  and  _387
REMARK  160  A    between atoms: _387  and  _388
REMARK  161  A    between atoms: _387  and  _390
REMARK  162  A    between atoms: _390  and  _391
REMARK  163  A    between atoms: _393  and  _395
REMARK  164  A    between atoms: _395  and  _396
REMARK  165  A    between atoms: _395  and  _398
REMARK  166  A    between atoms: _398  and  _399
REMARK  167  A    between atoms: _405  and  _407
REMARK  168  A    between atoms: _407  and  _408
REMARK  169  A    between atoms: _407  and  _410
REMARK  170  A    between atoms: _410  and  _411
REMARK  171  A    between atoms: _411  and  _412
REMARK                            x       y       z     vdW  Elec       q    Type
REMARK                         _______ _______ _______ _____ _____    ______ ____
ROOT
ATOM      1  CB  ASN A   1      35.627  12.079 -36.439  0.00  0.00    +0.110 C 
ENDROOT
BRANCH   1   2
ATOM      2  CG  ASN A   1      35.197  10.717 -36.939  0.00  0.00    +0.221 C 
ATOM      3  OD1 ASN A   1      35.992   9.777 -36.975  0.00  0.00    -0.275 OA
ATOM      4  ND2 ASN A   1      33.941  10.613 -37.366  0.00  0.00    -0.329 N 
ATOM      5 HD21 ASN A   1      33.305  11.434 -37.316  0.00  0.00    +0.145 HD
ATOM      6 HD22 ASN A   1      33.595   9.710 -37.750  0.00  0.00    +0.145 HD
ENDBRANCH   1   2
BRANCH   1   7
ATOM      7  CA  ASN A   1      35.678  12.169 -34.906  0.00  0.00    +0.142 C 
BRANCH   7   8
ATOM      8  N   ASN A   1      36.111  13.502 -34.516  0.00  0.00    -0.239 NA
ATOM      9  H   ASN A   1      37.128  13.677 -34.386  0.00  0.00    +0.142 HD
ENDBRANCH   7   8
BRANCH   7  10
ATOM     10  C   ASN A   1      36.645  11.143 -34.319  0.00  0.00    +0.225 C 
ATOM     11  O   ASN A   1      37.861  11.350 -34.344  0.00  0.00    -0.287 OA
ENDBRANCH   7  10
ENDBRANCH   1   7
TORSDOF 4
REMARK  Name = ../refined-set-2016/2x8z/2x8z_pocket.pdb
REMARK  171 active torsions:
REMARK  status: ('A' for Active; 'I' for Inactive)
REMARK    1  A    between atoms: _1  and  _3
REMARK    2  A    between atoms: _3  and  _4
REMARK    3  A    between atoms: _3  and  _6
REMARK    4  A    between atoms: _6  and  _7
REMARK    5  A    between atoms: _7  and  _8
REMARK    6  A    between atoms: _11  and  _13
REMARK    7  A    between atoms: _13  and  _14
REMARK    8  A    between atoms: _13  and  _16
REMARK    9  A    between atoms: _16  and  _17
REMARK   10  A    between atoms: _22  and  _24
REMARK   11  A    between atoms: _24  and  _25
REMARK   12  A    between atoms: _24  and  _27
REMARK   13  A    between atoms: _27  and  _28
REMARK   14  A    between atoms: _38  and  _40
REMARK   15  A    between atoms: _40  and  _41
REMARK   16  A    between atoms: _40  and  _43
REMARK   17  A    between atoms: _43  and  _44
REMARK   18  A    between atoms: _44  and  _45
REMARK   19  A    between atoms: _50  and  _52
REMARK   20  A    between atoms: _52  and  _53
REMARK   21  A    between atoms: _52  and  _55
REMARK   22  A    between atoms: _55  and  _56
REMARK   23  A    between atoms: _56  and  _57
REMARK   24  A    between atoms: _62  and  _64
REMARK   25  A    between atoms: _64  and  _65
REMARK   26  A    between atoms: _64  and  _67
REMARK   27  A    between atoms: _69  and  _71
REMARK   28  A    between atoms: _71  and  _72
REMARK   29  A    between atoms: _71  and  _74
REMARK   30  A    between atoms: _74  and  _75
REMARK   31  A    between atoms: _80  and  _82
REMARK   32  A    between atoms: _82  and  _83
REMARK   33  A    between atoms: _86  and  _88
REMARK   34  A    between atoms: _88  and  _89
REMARK   35  A    between atoms: _88  and  _91
REMARK   36  A    between atoms: _91  and  _92
REMARK   37  A    between atoms: _94  and  _96
REMARK   38  A    between atoms: _96  and  _97
REMARK   39  A    between atoms: _100  and  _102
REMARK   40  A    between atoms: _102  and  _103
REMARK   41  A    between atoms: _102  and  _105
REMARK   42  A    between atoms: _105  and  _106
REMARK   43  A    between atoms: _106  and  _107
REMARK   44  A    between atoms: _112  and  _114
REMARK   45  A    between atoms: _114  and  _115
REMARK   46  A    between atoms: _114  and  _117
REMARK   47  A    between atoms: _117  and  _118
REMARK   48  A    between atoms: _118  and  _119
REMARK   49  A    between atoms: _124  and  _126
REMARK   50  A    between atoms: _126  and  _127
REMARK   51  A    between atoms: _126  and  _129
REMARK   52  A    between atoms: _129  and  _130
REMARK   53  A    between atoms: _136  and  _138
REMARK   54  A    between atoms: _138  and  _139
REMARK   55  A    between atoms: _138  and  _141
REMARK   56  A    between atoms: _141  and  _142
REMARK   57  A    between atoms: _145  and  _147
REMARK   58  A    between atoms: _147  and  _148
REMARK   59  A    between atoms: _147  and  _150
REMARK   60  A    between atoms: _153  and  _155
REMARK   61  A    between atoms: _155  and  _156
REMARK   62  A    between atoms: _155  and  _158
REMARK   63  A    between atoms: _158  and  _159
REMARK   64  A    between atoms: _163  and  ZN_417
REMARK   65  A    between atoms: _164  and  _166
REMARK   66  A    between atoms: _166  and  _167
REMARK   67  A    between atoms: _166  and  _169
REMARK   68  A    between atoms: _169  and  _170
REMARK   69  A    between atoms: _170  and  _171
REMARK   70  A    between atoms: _174  and  _176
REMARK   71  A    between atoms: _176  and  _177
REMARK   72  A    between atoms: _176  and  _179
REMARK   73  A    between atoms: _179  and  _180
REMARK   74  A    between atoms: _184  and  ZN_417
REMARK   75  A    between atoms: _185  and  _187
REMARK   76  A    between atoms: _187  and  _188
REMARK   77  A    between atoms: _187  and  _190
REMARK   78  A    between atoms: _190  and  _191
REMARK   79  A    between atoms: _196  and  _198
REMARK   80  A    between atoms: _198  and  _199
REMARK   81  A    between atoms: _198  and  _201
REMARK   82  A    between atoms: _201  and  _202
REMARK   83  A    between atoms: _202  and  _203
REMARK   84  A    between atoms: _203  and  _204
REMARK   85  A    between atoms: _204  and  ZN_417
REMARK   86  A    between atoms: _206  and  _208
REMARK   87  A    between atoms: _208  and  _209
REMARK   88  A    between atoms: _208  and  _211
REMARK   89  A    between atoms: _211  and  _212
REMARK   90  A    between atoms: _215  and  _217
REMARK   91  A    between atoms: _217  and  _218
REMARK   92  A    between atoms: _217  and  _220
REMARK   93  A    between atoms: _220  and  _221
REMARK   94  A    between atoms: _224  and  _226
REMARK   95  A    between atoms: _226  and  _227
REMARK   96  A    between atoms: _226  and  _229
REMARK   97  A    between atoms: _229  and  _230
REMARK   98  A    between atoms: _230  and  _231
REMARK   99  A    between atoms: _231  and  _232
REMARK  100  A    between atoms: _232  and  _233
REMARK  101  A    between atoms: _237  and  _239
REMARK  102  A    between atoms: _239  and  _240
REMARK  103  A    between atoms: _239  and  _242
REMARK  104  A    between atoms: _242  and  _243
REMARK  105  A    between atoms: _249  and  _251
REMARK  106  A    between atoms: _251  and  _252
REMARK  107  A    between atoms: _251  and  _254
REMARK  108  A    between atoms: _254  and  _255
REMARK  109  A    between atoms: _261  and  _263
REMARK  110  A    between atoms: _263  and  _264
REMARK  111  A    between atoms: _267  and  _269
REMARK  112  A    between atoms: _269  and  _270
REMARK  113  A    between atoms: _269  and  _272
REMARK  114  A    between atoms: _272  and  _273
REMARK  115  A    between atoms: _273  and  _274
REMARK  116  A    between atoms: _276  and  _278
REMARK  117  A    between atoms: _278  and  _279
REMARK  118  A    between atoms: _278  and  _281
REMARK  119  A    between atoms: _281  and  _282
REMARK  120  A    between atoms: _282  and  _283
REMARK  121  A    between atoms: _283  and  _284
REMARK  122  A    between atoms: _284  and  _285
REMARK  123  A    between atoms: _289  and  _291
REMARK  124  A    between atoms: _291  and  _292
REMARK  125  A    between atoms: _291  and  _294
REMARK  126  A    between atoms: _294  and  _295
REMARK  127  A    between atoms: _300  and  _301
REMARK  128  A    between atoms: _303  and  _305
REMARK  129  A    between atoms: _305  and  _306
REMARK  130  A    between atoms: _305  and  _308
REMARK  131  A    between atoms: _308  and  _309
REMARK  132  A    between atoms: _314  and  _316
REMARK  133  A    between atoms: _316  and  _317
REMARK  134  A    between atoms: _316  and  _319
REMARK  135  A    between atoms: _319  and  _320
REMARK  136  A    between atoms: _323  and  _325
REMARK  137  A    between atoms: _325  and  _326
REMARK  138  A    between atoms: _325  and  _328
REMARK  139  A    between atoms: _331  and  _333
REMARK  140  A    between atoms: _333  and  _334
REMARK  141  A    between atoms: _333  and  _336
REMARK  142  A    between atoms: _336  and  _337
REMARK  143  A    between atoms: _342  and  _343
REMARK  144  A    between atoms: _345  and  _347
REMARK  145  A    between atoms: _347  and  _348
REMARK  146  A    between atoms: _347  and  _350
REMARK  147  A    between atoms: _350  and  _351
REMARK  148  A    between atoms: _351  and  _352
REMARK  149  A    between atoms: _352  and  _353
REMARK  150  A    between atoms: _362  and  _364
REMARK  151  A    between atoms: _364  and  _365
REMARK  152  A    between atoms: _364  and  _367
REMARK  153  A    between atoms: _367  and  _368
REMARK  154  A    between atoms: _373  and  _374
REMARK  155  A    between atoms: _376  and  _378
REMARK  156  A    between atoms: _378  and  _379
REMARK  157  A    between atoms: _378  and  _381
REMARK  158  A    between atoms: _381  and  _382
REMARK  159  A    between atoms: _385  and  _387
REMARK  160  A    between atoms: _387  and  _388
REMARK  161  A    between atoms: _387  and  _390
REMARK  162  A    between atoms: _390  and  _391
REMARK  163  A    between atoms: _393  and  _395
REMARK  164  A    between atoms: _395  and  _396
REMARK  165  A    between atoms: _395  and  _398
REMARK  166  A    between atoms: _398  and  _399
REMARK  167  A    between atoms: _405  and  _407
REMARK  168  A    between atoms: _407  and  _408
REMARK  169  A    between atoms: _407  and  _410
REMARK  170  A    between atoms: _410  and  _411
REMARK  171  A    between atoms: _411  and  _412
REMARK                            x       y       z     vdW  Elec       q    Type
REMARK                         _______ _______ _______ _____ _____    ______ ____
ROOT
ATOM      1  CG  TRP A   1      37.400   5.807 -36.081  0.00  0.00    -0.002 A 
ATOM      2  CD1 TRP A   1      37.918   4.746 -35.392  0.00  0.00    +0.068 A 
ATOM      3  NE1 TRP A   1      36.943   4.165 -34.620  0.00  0.00    -0.352 N 
ATOM      4  HE1 TRP A   1      37.072   3.332 -34.011  0.00  0.00    +0.166 HD
ATOM      5  CE2 TRP A   1      35.772   4.858 -34.780  0.00  0.00    +0.056 A 
ATOM      6  CZ2 TRP A   1      34.510   4.652 -34.199  0.00  0.00    +0.017 A 
ATOM      7  CH2 TRP A   1      33.500   5.515 -34.553  0.00  0.00    +0.001 A 
ATOM      8  CZ3 TRP A   1      33.721   6.573 -35.456  0.00  0.00    +0.000 A 
ATOM      9  CE3 TRP A   1      34.978   6.775 -36.034  0.00  0.00    +0.001 A 
ATOM     10  CD2 TRP A   1      36.023   5.904 -35.697  0.00  0.00    +0.013 A 
ENDROOT
BRANCH   1  11
ATOM     11  CB  TRP A   1      38.144   6.730 -36.996  0.00  0.00    +0.053 C 
BRANCH  11  12
ATOM     12  CA  TRP A   1      38.825   7.852 -36.194  0.00  0.00    +0.137 C 
BRANCH  12  13
ATOM     13  N   TRP A   1      37.859   8.439 -35.262  0.00  0.00    -0.239 NA
ATOM     14  H   TRP A   1      36.993   8.867 -35.647  0.00  0.00    +0.142 HD
ENDBRANCH  12  13
BRANCH  12  15
ATOM     15  C   TRP A   1      39.446   8.906 -37.121  0.00  0.00    +0.224 C 
ATOM     16  O   TRP A   1      40.237   8.571 -38.010  0.00  0.00    -0.287 OA
ENDBRANCH  12  15
ENDBRANCH  11  12
ENDBRANCH   1  11
TORSDOF 4
REMARK  Name = ../refined-set-2016/2x8z/2x8z_pocket.pdb
REMARK  171 active torsions:
REMARK  status: ('A' for Active; 'I' for Inactive)
REMARK    1  A    between atoms: _1  and  _3
REMARK    2  A    between atoms: _3  and  _4
REMARK    3  A    between atoms: _3  and  _6
REMARK    4  A    between atoms: _6  and  _7
REMARK    5  A    between atoms: _7  and  _8
REMARK    6  A    between atoms: _11  and  _13
REMARK    7  A    between atoms: _13  and  _14
REMARK    8  A    between atoms: _13  and  _16
REMARK    9  A    between atoms: _16  and  _17
REMARK   10  A    between atoms: _22  and  _24
REMARK   11  A    between atoms: _24  and  _25
REMARK   12  A    between atoms: _24  and  _27
REMARK   13  A    between atoms: _27  and  _28
REMARK   14  A    between atoms: _38  and  _40
REMARK   15  A    between atoms: _40  and  _41
REMARK   16  A    between atoms: _40  and  _43
REMARK   17  A    between atoms: _43  and  _44
REMARK   18  A    between atoms: _44  and  _45
REMARK   19  A    between atoms: _50  and  _52
REMARK   20  A    between atoms: _52  and  _53
REMARK   21  A    between atoms: _52  and  _55
REMARK   22  A    between atoms: _55  and  _56
REMARK   23  A    between atoms: _56  and  _57
REMARK   24  A    between atoms: _62  and  _64
REMARK   25  A    between atoms: _64  and  _65
REMARK   26  A    between atoms: _64  and  _67
REMARK   27  A    between atoms: _69  and  _71
REMARK   28  A    between atoms: _71  and  _72
REMARK   29  A    between atoms: _71  and  _74
REMARK   30  A    between atoms: _74  and  _75
REMARK   31  A    between atoms: _80  and  _82
REMARK   32  A    between atoms: _82  and  _83
REMARK   33  A    between atoms: _86  and  _88
REMARK   34  A    between atoms: _88  and  _89
REMARK   35  A    between atoms: _88  and  _91
REMARK   36  A    between atoms: _91  and  _92
REMARK   37  A    between atoms: _94  and  _96
REMARK   38  A    between atoms: _96  and  _97
REMARK   39  A    between atoms: _100  and  _102
REMARK   40  A    between atoms: _102  and  _103
REMARK   41  A    between atoms: _102  and  _105
REMARK   42  A    between atoms: _105  and  _106
REMARK   43  A    between atoms: _106  and  _107
REMARK   44  A    between atoms: _112  and  _114
REMARK   45  A    between atoms: _114  and  _115
REMARK   46  A    between atoms: _114  and  _117
REMARK   47  A    between atoms: _117  and  _118
REMARK   48  A    between atoms: _118  and  _119
REMARK   49  A    between atoms: _124  and  _126
REMARK   50  A    between atoms: _126  and  _127
REMARK   51  A    between atoms: _126  and  _129
REMARK   52  A    between atoms: _129  and  _130
REMARK   53  A    between atoms: _136  and  _138
REMARK   54  A    between atoms: _138  and  _139
REMARK   55  A    between atoms: _138  and  _141
REMARK   56  A    between atoms: _141  and  _142
REMARK   57  A    between atoms: _145  and  _147
REMARK   58  A    between atoms: _147  and  _148
REMARK   59  A    between atoms: _147  and  _150
REMARK   60  A    between atoms: _153  and  _155
REMARK   61  A    between atoms: _155  and  _156
REMARK   62  A    between atoms: _155  and  _158
REMARK   63  A    between atoms: _158  and  _159
REMARK   64  A    between atoms: _163  and  ZN_417
REMARK   65  A    between atoms: _164  and  _166
REMARK   66  A    between atoms: _166  and  _167
REMARK   67  A    between atoms: _166  and  _169
REMARK   68  A    between atoms: _169  and  _170
REMARK   69  A    between atoms: _170  and  _171
REMARK   70  A    between atoms: _174  and  _176
REMARK   71  A    between atoms: _176  and  _177
REMARK   72  A    between atoms: _176  and  _179
REMARK   73  A    between atoms: _179  and  _180
REMARK   74  A    between atoms: _184  and  ZN_417
REMARK   75  A    between atoms: _185  and  _187
REMARK   76  A    between atoms: _187  and  _188
REMARK   77  A    between atoms: _187  and  _190
REMARK   78  A    between atoms: _190  and  _191
REMARK   79  A    between atoms: _196  and  _198
REMARK   80  A    between atoms: _198  and  _199
REMARK   81  A    between atoms: _198  and  _201
REMARK   82  A    between atoms: _201  and  _202
REMARK   83  A    between atoms: _202  and  _203
REMARK   84  A    between atoms: _203  and  _204
REMARK   85  A    between atoms: _204  and  ZN_417
REMARK   86  A    between atoms: _206  and  _208
REMARK   87  A    between atoms: _208  and  _209
REMARK   88  A    between atoms: _208  and  _211
REMARK   89  A    between atoms: _211  and  _212
REMARK   90  A    between atoms: _215  and  _217
REMARK   91  A    between atoms: _217  and  _218
REMARK   92  A    between atoms: _217  and  _220
REMARK   93  A    between atoms: _220  and  _221
REMARK   94  A    between atoms: _224  and  _226
REMARK   95  A    between atoms: _226  and  _227
REMARK   96  A    between atoms: _226  and  _229
REMARK   97  A    between atoms: _229  and  _230
REMARK   98  A    between atoms: _230  and  _231
REMARK   99  A    between atoms: _231  and  _232
REMARK  100  A    between atoms: _232  and  _233
REMARK  101  A    between atoms: _237  and  _239
REMARK  102  A    between atoms: _239  and  _240
REMARK  103  A    between atoms: _239  and  _242
REMARK  104  A    between atoms: _242  and  _243
REMARK  105  A    between atoms: _249  and  _251
REMARK  106  A    between atoms: _251  and  _252
REMARK  107  A    between atoms: _251  and  _254
REMARK  108  A    between atoms: _254  and  _255
REMARK  109  A    between atoms: _261  and  _263
REMARK  110  A    between atoms: _263  and  _264
REMARK  111  A    between atoms: _267  and  _269
REMARK  112  A    between atoms: _269  and  _270
REMARK  113  A    between atoms: _269  and  _272
REMARK  114  A    between atoms: _272  and  _273
REMARK  115  A    between atoms: _273  and  _274
REMARK  116  A    between atoms: _276  and  _278
REMARK  117  A    between atoms: _278  and  _279
REMARK  118  A    between atoms: _278  and  _281
REMARK  119  A    between atoms: _281  and  _282
REMARK  120  A    between atoms: _282  and  _283
REMARK  121  A    between atoms: _283  and  _284
REMARK  122  A    between atoms: _284  and  _285
REMARK  123  A    between atoms: _289  and  _291
REMARK  124  A    between atoms: _291  and  _292
REMARK  125  A    between atoms: _291  and  _294
REMARK  126  A    between atoms: _294  and  _295
REMARK  127  A    between atoms: _300  and  _301
REMARK  128  A    between atoms: _303  and  _305
REMARK  129  A    between atoms: _305  and  _306
REMARK  130  A    between atoms: _305  and  _308
REMARK  131  A    between atoms: _308  and  _309
REMARK  132  A    between atoms: _314  and  _316
REMARK  133  A    between atoms: _316  and  _317
REMARK  134  A    between atoms: _316  and  _319
REMARK  135  A    between atoms: _319  and  _320
REMARK  136  A    between atoms: _323  and  _325
REMARK  137  A    between atoms: _325  and  _326
REMARK  138  A    between atoms: _325  and  _328
REMARK  139  A    between atoms: _331  and  _333
REMARK  140  A    between atoms: _333  and  _334
REMARK  141  A    between atoms: _333  and  _336
REMARK  142  A    between atoms: _336  and  _337
REMARK  143  A    between atoms: _342  and  _343
REMARK  144  A    between atoms: _345  and  _347
REMARK  145  A    between atoms: _347  and  _348
REMARK  146  A    between atoms: _347  and  _350
REMARK  147  A    between atoms: _350  and  _351
REMARK  148  A    between atoms: _351  and  _352
REMARK  149  A    between atoms: _352  and  _353
REMARK  150  A    between atoms: _362  and  _364
REMARK  151  A    between atoms: _364  and  _365
REMARK  152  A    between atoms: _364  and  _367
REMARK  153  A    between atoms: _367  and  _368
REMARK  154  A    between atoms: _373  and  _374
REMARK  155  A    between atoms: _376  and  _378
REMARK  156  A    between atoms: _378  and  _379
REMARK  157  A    between atoms: _378  and  _381
REMARK  158  A    between atoms: _381  and  _382
REMARK  159  A    between atoms: _385  and  _387
REMARK  160  A    between atoms: _387  and  _388
REMARK  161  A    between atoms: _387  and  _390
REMARK  162  A    between atoms: _390  and  _391
REMARK  163  A    between atoms: _393  and  _395
REMARK  164  A    between atoms: _395  and  _396
REMARK  165  A    between atoms: _395  and  _398
REMARK  166  A    between atoms: _398  and  _399
REMARK  167  A    between atoms: _405  and  _407
REMARK  168  A    between atoms: _407  and  _408
REMARK  169  A    between atoms: _407  and  _410
REMARK  170  A    between atoms: _410  and  _411
REMARK  171  A    between atoms: _411  and  _412
REMARK                            x       y       z     vdW  Elec       q    Type
REMARK                         _______ _______ _______ _____ _____    ______ ____
ROOT
ATOM      1  C   GLN A   1      37.078  11.272 -41.606  0.00  0.00    +0.238 C 
ATOM      2  N   GLN A   2      36.394  12.113 -40.833  0.00  0.00    -0.298 N 
ATOM      3  H   GLN A   2      36.322  11.898 -39.818  0.00  0.00    +0.150 HD
ATOM      4  O   GLN A   1      37.158  11.384 -42.833  0.00  0.00    -0.274 OA
ENDROOT
BRANCH   1   5
ATOM      5  CA  GLN A   1      37.759  10.107 -40.892  0.00  0.00    +0.145 C 
BRANCH   5   6
ATOM      6  N   GLN A   1      38.108  10.406 -39.502  0.00  0.00    -0.238 NA
ATOM      7  H   GLN A   1      37.504  10.044 -38.737  0.00  0.00    +0.142 HD
ENDBRANCH   5   6
BRANCH   5   8
ATOM      8  CB  GLN A   1      36.902   8.845 -40.977  0.00  0.00    +0.036 C 
BRANCH   8   9
ATOM      9  CG  GLN A   1      35.512   8.946 -40.371  0.00  0.00    +0.087 C 
BRANCH   9  10
ATOM     10  CD  GLN A   1      34.797   7.617 -40.406  0.00  0.00    +0.219 C 
ATOM     11  OE1 GLN A   1      35.192   6.673 -39.726  0.00  0.00    -0.275 OA
ATOM     12  NE2 GLN A   1      33.748   7.529 -41.210  0.00  0.00    -0.329 N 
ATOM     13 HE21 GLN A   1      33.223   6.634 -41.284  0.00  0.00    +0.145 HD
ATOM     14 HE22 GLN A   1      33.449   8.355 -41.767  0.00  0.00    +0.145 HD
ENDBRANCH   9  10
ENDBRANCH   8   9
ENDBRANCH   5   8
ENDBRANCH   1   5
BRANCH   2  15
ATOM     15  CA  GLN A   2      35.737  13.324 -41.332  0.00  0.00    +0.137 C 
BRANCH  15  16
ATOM     16  C   GLN A   2      35.887  14.402 -40.265  0.00  0.00    +0.227 C 
ATOM     17  O   GLN A   2      35.752  14.108 -39.071  0.00  0.00    -0.286 OA
ENDBRANCH  15  16
BRANCH  15  18
ATOM     18  CB  GLN A   2      34.250  13.062 -41.597  0.00  0.00    +0.037 C 
BRANCH  18  19
ATOM     19  CG  GLN A   2      33.980  12.211 -42.837  0.00  0.00    +0.087 C 
BRANCH  19  20
ATOM     20  CD  GLN A   2      32.509  12.165 -43.230  0.00  0.00    +0.219 C 
ATOM     21  OE1 GLN A   2      31.611  12.396 -42.404  0.00  0.00    -0.275 OA
ATOM     22  NE2 GLN A   2      32.254  11.855 -44.498  0.00  0.00    -0.329 N 
ATOM     23 HE21 GLN A   2      31.271  11.798 -44.832  0.00  0.00    +0.145 HD
ATOM     24 HE22 GLN A   2      33.038  11.669 -45.156  0.00  0.00    +0.145 HD
ENDBRANCH  19  20
ENDBRANCH  18  19
ENDBRANCH  15  18
ENDBRANCH   2  15
TORSDOF 10
REMARK  Name = ../refined-set-2016/2x8z/2x8z_pocket.pdb
REMARK  171 active torsions:
REMARK  status: ('A' for Active; 'I' for Inactive)
REMARK    1  A    between atoms: _1  and  _3
REMARK    2  A    between atoms: _3  and  _4
REMARK    3  A    between atoms: _3  and  _6
REMARK    4  A    between atoms: _6  and  _7
REMARK    5  A    between atoms: _7  and  _8
REMARK    6  A    between atoms: _11  and  _13
REMARK    7  A    between atoms: _13  and  _14
REMARK    8  A    between atoms: _13  and  _16
REMARK    9  A    between atoms: _16  and  _17
REMARK   10  A    between atoms: _22  and  _24
REMARK   11  A    between atoms: _24  and  _25
REMARK   12  A    between atoms: _24  and  _27
REMARK   13  A    between atoms: _27  and  _28
REMARK   14  A    between atoms: _38  and  _40
REMARK   15  A    between atoms: _40  and  _41
REMARK   16  A    between atoms: _40  and  _43
REMARK   17  A    between atoms: _43  and  _44
REMARK   18  A    between atoms: _44  and  _45
REMARK   19  A    between atoms: _50  and  _52
REMARK   20  A    between atoms: _52  and  _53
REMARK   21  A    between atoms: _52  and  _55
REMARK   22  A    between atoms: _55  and  _56
REMARK   23  A    between atoms: _56  and  _57
REMARK   24  A    between atoms: _62  and  _64
REMARK   25  A    between atoms: _64  and  _65
REMARK   26  A    between atoms: _64  and  _67
REMARK   27  A    between atoms: _69  and  _71
REMARK   28  A    between atoms: _71  and  _72
REMARK   29  A    between atoms: _71  and  _74
REMARK   30  A    between atoms: _74  and  _75
REMARK   31  A    between atoms: _80  and  _82
REMARK   32  A    between atoms: _82  and  _83
REMARK   33  A    between atoms: _86  and  _88
REMARK   34  A    between atoms: _88  and  _89
REMARK   35  A    between atoms: _88  and  _91
REMARK   36  A    between atoms: _91  and  _92
REMARK   37  A    between atoms: _94  and  _96
REMARK   38  A    between atoms: _96  and  _97
REMARK   39  A    between atoms: _100  and  _102
REMARK   40  A    between atoms: _102  and  _103
REMARK   41  A    between atoms: _102  and  _105
REMARK   42  A    between atoms: _105  and  _106
REMARK   43  A    between atoms: _106  and  _107
REMARK   44  A    between atoms: _112  and  _114
REMARK   45  A    between atoms: _114  and  _115
REMARK   46  A    between atoms: _114  and  _117
REMARK   47  A    between atoms: _117  and  _118
REMARK   48  A    between atoms: _118  and  _119
REMARK   49  A    between atoms: _124  and  _126
REMARK   50  A    between atoms: _126  and  _127
REMARK   51  A    between atoms: _126  and  _129
REMARK   52  A    between atoms: _129  and  _130
REMARK   53  A    between atoms: _136  and  _138
REMARK   54  A    between atoms: _138  and  _139
REMARK   55  A    between atoms: _138  and  _141
REMARK   56  A    between atoms: _141  and  _142
REMARK   57  A    between atoms: _145  and  _147
REMARK   58  A    between atoms: _147  and  _148
REMARK   59  A    between atoms: _147  and  _150
REMARK   60  A    between atoms: _153  and  _155
REMARK   61  A    between atoms: _155  and  _156
REMARK   62  A    between atoms: _155  and  _158
REMARK   63  A    between atoms: _158  and  _159
REMARK   64  A    between atoms: _163  and  ZN_417
REMARK   65  A    between atoms: _164  and  _166
REMARK   66  A    between atoms: _166  and  _167
REMARK   67  A    between atoms: _166  and  _169
REMARK   68  A    between atoms: _169  and  _170
REMARK   69  A    between atoms: _170  and  _171
REMARK   70  A    between atoms: _174  and  _176
REMARK   71  A    between atoms: _176  and  _177
REMARK   72  A    between atoms: _176  and  _179
REMARK   73  A    between atoms: _179  and  _180
REMARK   74  A    between atoms: _184  and  ZN_417
REMARK   75  A    between atoms: _185  and  _187
REMARK   76  A    between atoms: _187  and  _188
REMARK   77  A    between atoms: _187  and  _190
REMARK   78  A    between atoms: _190  and  _191
REMARK   79  A    between atoms: _196  and  _198
REMARK   80  A    between atoms: _198  and  _199
REMARK   81  A    between atoms: _198  and  _201
REMARK   82  A    between atoms: _201  and  _202
REMARK   83  A    between atoms: _202  and  _203
REMARK   84  A    between atoms: _203  and  _204
REMARK   85  A    between atoms: _204  and  ZN_417
REMARK   86  A    between atoms: _206  and  _208
REMARK   87  A    between atoms: _208  and  _209
REMARK   88  A    between atoms: _208  and  _211
REMARK   89  A    between atoms: _211  and  _212
REMARK   90  A    between atoms: _215  and  _217
REMARK   91  A    between atoms: _217  and  _218
REMARK   92  A    between atoms: _217  and  _220
REMARK   93  A    between atoms: _220  and  _221
REMARK   94  A    between atoms: _224  and  _226
REMARK   95  A    between atoms: _226  and  _227
REMARK   96  A    between atoms: _226  and  _229
REMARK   97  A    between atoms: _229  and  _230
REMARK   98  A    between atoms: _230  and  _231
REMARK   99  A    between atoms: _231  and  _232
REMARK  100  A    between atoms: _232  and  _233
REMARK  101  A    between atoms: _237  and  _239
REMARK  102  A    between atoms: _239  and  _240
REMARK  103  A    between atoms: _239  and  _242
REMARK  104  A    between atoms: _242  and  _243
REMARK  105  A    between atoms: _249  and  _251
REMARK  106  A    between atoms: _251  and  _252
REMARK  107  A    between atoms: _251  and  _254
REMARK  108  A    between atoms: _254  and  _255
REMARK  109  A    between atoms: _261  and  _263
REMARK  110  A    between atoms: _263  and  _264
REMARK  111  A    between atoms: _267  and  _269
REMARK  112  A    between atoms: _269  and  _270
REMARK  113  A    between atoms: _269  and  _272
REMARK  114  A    between atoms: _272  and  _273
REMARK  115  A    between atoms: _273  and  _274
REMARK  116  A    between atoms: _276  and  _278
REMARK  117  A    between atoms: _278  and  _279
REMARK  118  A    between atoms: _278  and  _281
REMARK  119  A    between atoms: _281  and  _282
REMARK  120  A    between atoms: _282  and  _283
REMARK  121  A    between atoms: _283  and  _284
REMARK  122  A    between atoms: _284  and  _285
REMARK  123  A    between atoms: _289  and  _291
REMARK  124  A    between atoms: _291  and  _292
REMARK  125  A    between atoms: _291  and  _294
REMARK  126  A    between atoms: _294  and  _295
REMARK  127  A    between atoms: _300  and  _301
REMARK  128  A    between atoms: _303  and  _305
REMARK  129  A    between atoms: _305  and  _306
REMARK  130  A    between atoms: _305  and  _308
REMARK  131  A    between atoms: _308  and  _309
REMARK  132  A    between atoms: _314  and  _316
REMARK  133  A    between atoms: _316  and  _317
REMARK  134  A    between atoms: _316  and  _319
REMARK  135  A    between atoms: _319  and  _320
REMARK  136  A    between atoms: _323  and  _325
REMARK  137  A    between atoms: _325  and  _326
REMARK  138  A    between atoms: _325  and  _328
REMARK  139  A    between atoms: _331  and  _333
REMARK  140  A    between atoms: _333  and  _334
REMARK  141  A    between atoms: _333  and  _336
REMARK  142  A    between atoms: _336  and  _337
REMARK  143  A    between atoms: _342  and  _343
REMARK  144  A    between atoms: _345  and  _347
REMARK  145  A    between atoms: _347  and  _348
REMARK  146  A    between atoms: _347  and  _350
REMARK  147  A    between atoms: _350  and  _351
REMARK  148  A    between atoms: _351  and  _352
REMARK  149  A    between atoms: _352  and  _353
REMARK  150  A    between atoms: _362  and  _364
REMARK  151  A    between atoms: _364  and  _365
REMARK  152  A    between atoms: _364  and  _367
REMARK  153  A    between atoms: _367  and  _368
REMARK  154  A    between atoms: _373  and  _374
REMARK  155  A    between atoms: _376  and  _378
REMARK  156  A    between atoms: _378  and  _379
REMARK  157  A    between atoms: _378  and  _381
REMARK  158  A    between atoms: _381  and  _382
REMARK  159  A    between atoms: _385  and  _387
REMARK  160  A    between atoms: _387  and  _388
REMARK  161  A    between atoms: _387  and  _390
REMARK  162  A    between atoms: _390  and  _391
REMARK  163  A    between atoms: _393  and  _395
REMARK  164  A    between atoms: _395  and  _396
REMARK  165  A    between atoms: _395  and  _398
REMARK  166  A    between atoms: _398  and  _399
REMARK  167  A    between atoms: _405  and  _407
REMARK  168  A    between atoms: _407  and  _408
REMARK  169  A    between atoms: _407  and  _410
REMARK  170  A    between atoms: _410  and  _411
REMARK  171  A    between atoms: _411  and  _412
REMARK                            x       y       z     vdW  Elec       q    Type
REMARK                         _______ _______ _______ _____ _____    ______ ____
ROOT
ATOM      1  C   HIS A   2      25.292   0.999 -37.670  0.00  0.00    +0.241 C 
ATOM      2  O   HIS A   2      24.810  -0.111 -37.897  0.00  0.00    -0.273 OA
ATOM      3  N   ALA A   3      24.937   2.105 -38.326  0.00  0.00    -0.297 N 
ATOM      4  H   ALA A   3      25.470   2.980 -38.147  0.00  0.00    +0.150 HD
ENDROOT
BRANCH   3   5
ATOM      5  CA  ALA A   3      23.830   2.145 -39.289  0.00  0.00    +0.149 C 
ATOM      6  CB  ALA A   3      23.672   3.549 -39.856  0.00  0.00    +0.031 C 
BRANCH   5   7
ATOM      7  C   ALA A   3      23.975   1.118 -40.415  0.00  0.00    +0.241 C 
ATOM      8  N   SER A   4      22.876   0.434 -40.733  0.00  0.00    -0.295 N 
ATOM      9  H   SER A   4      21.987   0.659 -40.243  0.00  0.00    +0.150 HD
ATOM     10  O   ALA A   3      25.062   0.944 -40.970  0.00  0.00    -0.273 OA
BRANCH   8  11
ATOM     11  CA  SER A   4      22.875  -0.623 -41.748  0.00  0.00    +0.178 C 
BRANCH  11  12
ATOM     12  C   SER A   4      21.543  -0.723 -42.484  0.00  0.00    +0.243 C 
ATOM     13  O   SER A   4      20.482  -0.446 -41.910  0.00  0.00    -0.273 OA
ATOM     14  N   ALA A   5      21.621  -1.107 -43.759  0.00  0.00    -0.298 N 
ATOM     15  H   ALA A   5      22.565  -1.237 -44.176  0.00  0.00    +0.150 HD
BRANCH  14  16
ATOM     16  CA  ALA A   5      20.453  -1.355 -44.602  0.00  0.00    +0.137 C 
ATOM     17  CB  ALA A   5      20.473  -0.439 -45.812  0.00  0.00    +0.030 C 
BRANCH  16  18
ATOM     18  C   ALA A   5      20.439  -2.825 -45.029  0.00  0.00    +0.227 C 
ATOM     19  O   ALA A   5      21.493  -3.415 -45.279  0.00  0.00    -0.286 OA
ENDBRANCH  16  18
ENDBRANCH  14  16
ENDBRANCH  11  12
BRANCH  11  20
ATOM     20  CB  SER A   4      23.222  -1.975 -41.123  0.00  0.00    +0.166 C 
BRANCH  20  21
ATOM     21  OG  SER A   4      22.294  -2.332 -40.110  0.00  0.00    -0.380 OA
ATOM     22  H   SER A   4      22.304  -1.645 -39.398  0.00  0.00    +0.211 HD
ENDBRANCH  20  21
ENDBRANCH  11  20
ENDBRANCH   8  11
ENDBRANCH   5   7
ENDBRANCH   3   5
BRANCH   1  23
ATOM     23  CA  HIS A   2      26.350   1.171 -36.580  0.00  0.00    +0.155 C 
BRANCH  23  26
ATOM     24  C   CYS A   1      24.746   1.201 -34.773  0.00  0.00    +0.239 C 
ATOM     25  O   CYS A   1      24.177   2.170 -35.270  0.00  0.00    -0.274 OA
ATOM     26  N   HIS A   2      25.840   0.662 -35.310  0.00  0.00    -0.297 N 
ATOM     27  H   HIS A   2      26.329  -0.118 -34.826  0.00  0.00    +0.150 HD
BRANCH  24  28
ATOM     28  CA  CYS A   1      24.198   0.581 -33.494  0.00  0.00    +0.156 C 
BRANCH  28  29
ATOM     29  N   CYS A   1      24.789  -0.725 -33.175  0.00  0.00    -0.237 NA
ATOM     30  H   CYS A   1      25.653  -0.763 -32.597  0.00  0.00    +0.142 HD
ENDBRANCH  28  29
BRANCH  28  31
ATOM     31  CB  CYS A   1      24.338   1.579 -32.331  0.00  0.00    +0.095 C 
ATOM     32  SG  CYS A   1      22.845   1.831 -31.286  0.00  0.00    -0.080 S 
ENDBRANCH  28  31
ENDBRANCH  24  28
ENDBRANCH  23  26
BRANCH  23  33
ATOM     33  CB  HIS A   2      27.671   0.510 -36.985  0.00  0.00    +0.076 C 
BRANCH  33  34
ATOM     34  CG  HIS A   2      28.338   1.188 -38.141  0.00  0.00    +0.082 A 
ATOM     35  ND1 HIS A   2      29.273   2.188 -37.978  0.00  0.00    -0.227 NA
ATOM     36  CE1 HIS A   2      29.667   2.616 -39.164  0.00  0.00    +0.199 A 
ATOM     37  NE2 HIS A   2      29.013   1.938 -40.090  0.00  0.00    -0.221 NA
ATOM     38  CD2 HIS A   2      28.172   1.041 -39.476  0.00  0.00    +0.115 A 
ENDBRANCH  33  34
ENDBRANCH  23  33
ENDBRANCH   1  23
TORSDOF 15
REMARK  Name = ../refined-set-2016/2x8z/2x8z_pocket.pdb
REMARK  171 active torsions:
REMARK  status: ('A' for Active; 'I' for Inactive)
REMARK    1  A    between atoms: _1  and  _3
REMARK    2  A    between atoms: _3  and  _4
REMARK    3  A    between atoms: _3  and  _6
REMARK    4  A    between atoms: _6  and  _7
REMARK    5  A    between atoms: _7  and  _8
REMARK    6  A    between atoms: _11  and  _13
REMARK    7  A    between atoms: _13  and  _14
REMARK    8  A    between atoms: _13  and  _16
REMARK    9  A    between atoms: _16  and  _17
REMARK   10  A    between atoms: _22  and  _24
REMARK   11  A    between atoms: _24  and  _25
REMARK   12  A    between atoms: _24  and  _27
REMARK   13  A    between atoms: _27  and  _28
REMARK   14  A    between atoms: _38  and  _40
REMARK   15  A    between atoms: _40  and  _41
REMARK   16  A    between atoms: _40  and  _43
REMARK   17  A    between atoms: _43  and  _44
REMARK   18  A    between atoms: _44  and  _45
REMARK   19  A    between atoms: _50  and  _52
REMARK   20  A    between atoms: _52  and  _53
REMARK   21  A    between atoms: _52  and  _55
REMARK   22  A    between atoms: _55  and  _56
REMARK   23  A    between atoms: _56  and  _57
REMARK   24  A    between atoms: _62  and  _64
REMARK   25  A    between atoms: _64  and  _65
REMARK   26  A    between atoms: _64  and  _67
REMARK   27  A    between atoms: _69  and  _71
REMARK   28  A    between atoms: _71  and  _72
REMARK   29  A    between atoms: _71  and  _74
REMARK   30  A    between atoms: _74  and  _75
REMARK   31  A    between atoms: _80  and  _82
REMARK   32  A    between atoms: _82  and  _83
REMARK   33  A    between atoms: _86  and  _88
REMARK   34  A    between atoms: _88  and  _89
REMARK   35  A    between atoms: _88  and  _91
REMARK   36  A    between atoms: _91  and  _92
REMARK   37  A    between atoms: _94  and  _96
REMARK   38  A    between atoms: _96  and  _97
REMARK   39  A    between atoms: _100  and  _102
REMARK   40  A    between atoms: _102  and  _103
REMARK   41  A    between atoms: _102  and  _105
REMARK   42  A    between atoms: _105  and  _106
REMARK   43  A    between atoms: _106  and  _107
REMARK   44  A    between atoms: _112  and  _114
REMARK   45  A    between atoms: _114  and  _115
REMARK   46  A    between atoms: _114  and  _117
REMARK   47  A    between atoms: _117  and  _118
REMARK   48  A    between atoms: _118  and  _119
REMARK   49  A    between atoms: _124  and  _126
REMARK   50  A    between atoms: _126  and  _127
REMARK   51  A    between atoms: _126  and  _129
REMARK   52  A    between atoms: _129  and  _130
REMARK   53  A    between atoms: _136  and  _138
REMARK   54  A    between atoms: _138  and  _139
REMARK   55  A    between atoms: _138  and  _141
REMARK   56  A    between atoms: _141  and  _142
REMARK   57  A    between atoms: _145  and  _147
REMARK   58  A    between atoms: _147  and  _148
REMARK   59  A    between atoms: _147  and  _150
REMARK   60  A    between atoms: _153  and  _155
REMARK   61  A    between atoms: _155  and  _156
REMARK   62  A    between atoms: _155  and  _158
REMARK   63  A    between atoms: _158  and  _159
REMARK   64  A    between atoms: _163  and  ZN_417
REMARK   65  A    between atoms: _164  and  _166
REMARK   66  A    between atoms: _166  and  _167
REMARK   67  A    between atoms: _166  and  _169
REMARK   68  A    between atoms: _169  and  _170
REMARK   69  A    between atoms: _170  and  _171
REMARK   70  A    between atoms: _174  and  _176
REMARK   71  A    between atoms: _176  and  _177
REMARK   72  A    between atoms: _176  and  _179
REMARK   73  A    between atoms: _179  and  _180
REMARK   74  A    between atoms: _184  and  ZN_417
REMARK   75  A    between atoms: _185  and  _187
REMARK   76  A    between atoms: _187  and  _188
REMARK   77  A    between atoms: _187  and  _190
REMARK   78  A    between atoms: _190  and  _191
REMARK   79  A    between atoms: _196  and  _198
REMARK   80  A    between atoms: _198  and  _199
REMARK   81  A    between atoms: _198  and  _201
REMARK   82  A    between atoms: _201  and  _202
REMARK   83  A    between atoms: _202  and  _203
REMARK   84  A    between atoms: _203  and  _204
REMARK   85  A    between atoms: _204  and  ZN_417
REMARK   86  A    between atoms: _206  and  _208
REMARK   87  A    between atoms: _208  and  _209
REMARK   88  A    between atoms: _208  and  _211
REMARK   89  A    between atoms: _211  and  _212
REMARK   90  A    between atoms: _215  and  _217
REMARK   91  A    between atoms: _217  and  _218
REMARK   92  A    between atoms: _217  and  _220
REMARK   93  A    between atoms: _220  and  _221
REMARK   94  A    between atoms: _224  and  _226
REMARK   95  A    between atoms: _226  and  _227
REMARK   96  A    between atoms: _226  and  _229
REMARK   97  A    between atoms: _229  and  _230
REMARK   98  A    between atoms: _230  and  _231
REMARK   99  A    between atoms: _231  and  _232
REMARK  100  A    between atoms: _232  and  _233
REMARK  101  A    between atoms: _237  and  _239
REMARK  102  A    between atoms: _239  and  _240
REMARK  103  A    between atoms: _239  and  _242
REMARK  104  A    between atoms: _242  and  _243
REMARK  105  A    between atoms: _249  and  _251
REMARK  106  A    between atoms: _251  and  _252
REMARK  107  A    between atoms: _251  and  _254
REMARK  108  A    between atoms: _254  and  _255
REMARK  109  A    between atoms: _261  and  _263
REMARK  110  A    between atoms: _263  and  _264
REMARK  111  A    between atoms: _267  and  _269
REMARK  112  A    between atoms: _269  and  _270
REMARK  113  A    between atoms: _269  and  _272
REMARK  114  A    between atoms: _272  and  _273
REMARK  115  A    between atoms: _273  and  _274
REMARK  116  A    between atoms: _276  and  _278
REMARK  117  A    between atoms: _278  and  _279
REMARK  118  A    between atoms: _278  and  _281
REMARK  119  A    between atoms: _281  and  _282
REMARK  120  A    between atoms: _282  and  _283
REMARK  121  A    between atoms: _283  and  _284
REMARK  122  A    between atoms: _284  and  _285
REMARK  123  A    between atoms: _289  and  _291
REMARK  124  A    between atoms: _291  and  _292
REMARK  125  A    between atoms: _291  and  _294
REMARK  126  A    between atoms: _294  and  _295
REMARK  127  A    between atoms: _300  and  _301
REMARK  128  A    between atoms: _303  and  _305
REMARK  129  A    between atoms: _305  and  _306
REMARK  130  A    between atoms: _305  and  _308
REMARK  131  A    between atoms: _308  and  _309
REMARK  132  A    between atoms: _314  and  _316
REMARK  133  A    between atoms: _316  and  _317
REMARK  134  A    between atoms: _316  and  _319
REMARK  135  A    between atoms: _319  and  _320
REMARK  136  A    between atoms: _323  and  _325
REMARK  137  A    between atoms: _325  and  _326
REMARK  138  A    between atoms: _325  and  _328
REMARK  139  A    between atoms: _331  and  _333
REMARK  140  A    between atoms: _333  and  _334
REMARK  141  A    between atoms: _333  and  _336
REMARK  142  A    between atoms: _336  and  _337
REMARK  143  A    between atoms: _342  and  _343
REMARK  144  A    between atoms: _345  and  _347
REMARK  145  A    between atoms: _347  and  _348
REMARK  146  A    between atoms: _347  and  _350
REMARK  147  A    between atoms: _350  and  _351
REMARK  148  A    between atoms: _351  and  _352
REMARK  149  A    between atoms: _352  and  _353
REMARK  150  A    between atoms: _362  and  _364
REMARK  151  A    between atoms: _364  and  _365
REMARK  152  A    between atoms: _364  and  _367
REMARK  153  A    between atoms: _367  and  _368
REMARK  154  A    between atoms: _373  and  _374
REMARK  155  A    between atoms: _376  and  _378
REMARK  156  A    between atoms: _378  and  _379
REMARK  157  A    between atoms: _378  and  _381
REMARK  158  A    between atoms: _381  and  _382
REMARK  159  A    between atoms: _385  and  _387
REMARK  160  A    between atoms: _387  and  _388
REMARK  161  A    between atoms: _387  and  _390
REMARK  162  A    between atoms: _390  and  _391
REMARK  163  A    between atoms: _393  and  _395
REMARK  164  A    between atoms: _395  and  _396
REMARK  165  A    between atoms: _395  and  _398
REMARK  166  A    between atoms: _398  and  _399
REMARK  167  A    between atoms: _405  and  _407
REMARK  168  A    between atoms: _407  and  _408
REMARK  169  A    between atoms: _407  and  _410
REMARK  170  A    between atoms: _410  and  _411
REMARK  171  A    between atoms: _411  and  _412
REMARK                            x       y       z     vdW  Elec       q    Type
REMARK                         _______ _______ _______ _____ _____    ______ ____
ROOT
ATOM      1  CB  GLN A   1      19.541   4.104 -38.437  0.00  0.00    +0.035 C 
ENDROOT
BRANCH   1   2
ATOM      2  CA  GLN A   1      19.762   3.040 -37.356  0.00  0.00    +0.134 C 
BRANCH   2   3
ATOM      3  N   GLN A   1      18.975   1.840 -37.641  0.00  0.00    -0.239 NA
ATOM      4  H   GLN A   1      17.972   1.818 -37.366  0.00  0.00    +0.142 HD
ENDBRANCH   2   3
BRANCH   2   5
ATOM      5  C   GLN A   1      19.396   3.594 -35.987  0.00  0.00    +0.224 C 
ATOM      6  O   GLN A   1      18.216   3.780 -35.681  0.00  0.00    -0.287 OA
ENDBRANCH   2   5
ENDBRANCH   1   2
BRANCH   1   7
ATOM      7  CG  GLN A   1      20.388   5.370 -38.249  0.00  0.00    +0.087 C 
BRANCH   7   8
ATOM      8  CD  GLN A   1      20.314   6.345 -39.413  0.00  0.00    +0.219 C 
ATOM      9  NE2 GLN A   1      20.629   7.609 -39.139  0.00  0.00    -0.329 N 
ATOM     10 HE21 GLN A   1      20.893   7.881 -38.170  0.00  0.00    +0.145 HD
ATOM     11 HE22 GLN A   1      20.611   8.325 -39.893  0.00  0.00    +0.145 HD
ATOM     12  OE1 GLN A   1      19.995   5.974 -40.544  0.00  0.00    -0.275 OA
ENDBRANCH   7   8
ENDBRANCH   1   7
TORSDOF 5
REMARK  Name = ../refined-set-2016/2x8z/2x8z_pocket.pdb
REMARK  171 active torsions:
REMARK  status: ('A' for Active; 'I' for Inactive)
REMARK    1  A    between atoms: _1  and  _3
REMARK    2  A    between atoms: _3  and  _4
REMARK    3  A    between atoms: _3  and  _6
REMARK    4  A    between atoms: _6  and  _7
REMARK    5  A    between atoms: _7  and  _8
REMARK    6  A    between atoms: _11  and  _13
REMARK    7  A    between atoms: _13  and  _14
REMARK    8  A    between atoms: _13  and  _16
REMARK    9  A    between atoms: _16  and  _17
REMARK   10  A    between atoms: _22  and  _24
REMARK   11  A    between atoms: _24  and  _25
REMARK   12  A    between atoms: _24  and  _27
REMARK   13  A    between atoms: _27  and  _28
REMARK   14  A    between atoms: _38  and  _40
REMARK   15  A    between atoms: _40  and  _41
REMARK   16  A    between atoms: _40  and  _43
REMARK   17  A    between atoms: _43  and  _44
REMARK   18  A    between atoms: _44  and  _45
REMARK   19  A    between atoms: _50  and  _52
REMARK   20  A    between atoms: _52  and  _53
REMARK   21  A    between atoms: _52  and  _55
REMARK   22  A    between atoms: _55  and  _56
REMARK   23  A    between atoms: _56  and  _57
REMARK   24  A    between atoms: _62  and  _64
REMARK   25  A    between atoms: _64  and  _65
REMARK   26  A    between atoms: _64  and  _67
REMARK   27  A    between atoms: _69  and  _71
REMARK   28  A    between atoms: _71  and  _72
REMARK   29  A    between atoms: _71  and  _74
REMARK   30  A    between atoms: _74  and  _75
REMARK   31  A    between atoms: _80  and  _82
REMARK   32  A    between atoms: _82  and  _83
REMARK   33  A    between atoms: _86  and  _88
REMARK   34  A    between atoms: _88  and  _89
REMARK   35  A    between atoms: _88  and  _91
REMARK   36  A    between atoms: _91  and  _92
REMARK   37  A    between atoms: _94  and  _96
REMARK   38  A    between atoms: _96  and  _97
REMARK   39  A    between atoms: _100  and  _102
REMARK   40  A    between atoms: _102  and  _103
REMARK   41  A    between atoms: _102  and  _105
REMARK   42  A    between atoms: _105  and  _106
REMARK   43  A    between atoms: _106  and  _107
REMARK   44  A    between atoms: _112  and  _114
REMARK   45  A    between atoms: _114  and  _115
REMARK   46  A    between atoms: _114  and  _117
REMARK   47  A    between atoms: _117  and  _118
REMARK   48  A    between atoms: _118  and  _119
REMARK   49  A    between atoms: _124  and  _126
REMARK   50  A    between atoms: _126  and  _127
REMARK   51  A    between atoms: _126  and  _129
REMARK   52  A    between atoms: _129  and  _130
REMARK   53  A    between atoms: _136  and  _138
REMARK   54  A    between atoms: _138  and  _139
REMARK   55  A    between atoms: _138  and  _141
REMARK   56  A    between atoms: _141  and  _142
REMARK   57  A    between atoms: _145  and  _147
REMARK   58  A    between atoms: _147  and  _148
REMARK   59  A    between atoms: _147  and  _150
REMARK   60  A    between atoms: _153  and  _155
REMARK   61  A    between atoms: _155  and  _156
REMARK   62  A    between atoms: _155  and  _158
REMARK   63  A    between atoms: _158  and  _159
REMARK   64  A    between atoms: _163  and  ZN_417
REMARK   65  A    between atoms: _164  and  _166
REMARK   66  A    between atoms: _166  and  _167
REMARK   67  A    between atoms: _166  and  _169
REMARK   68  A    between atoms: _169  and  _170
REMARK   69  A    between atoms: _170  and  _171
REMARK   70  A    between atoms: _174  and  _176
REMARK   71  A    between atoms: _176  and  _177
REMARK   72  A    between atoms: _176  and  _179
REMARK   73  A    between atoms: _179  and  _180
REMARK   74  A    between atoms: _184  and  ZN_417
REMARK   75  A    between atoms: _185  and  _187
REMARK   76  A    between atoms: _187  and  _188
REMARK   77  A    between atoms: _187  and  _190
REMARK   78  A    between atoms: _190  and  _191
REMARK   79  A    between atoms: _196  and  _198
REMARK   80  A    between atoms: _198  and  _199
REMARK   81  A    between atoms: _198  and  _201
REMARK   82  A    between atoms: _201  and  _202
REMARK   83  A    between atoms: _202  and  _203
REMARK   84  A    between atoms: _203  and  _204
REMARK   85  A    between atoms: _204  and  ZN_417
REMARK   86  A    between atoms: _206  and  _208
REMARK   87  A    between atoms: _208  and  _209
REMARK   88  A    between atoms: _208  and  _211
REMARK   89  A    between atoms: _211  and  _212
REMARK   90  A    between atoms: _215  and  _217
REMARK   91  A    between atoms: _217  and  _218
REMARK   92  A    between atoms: _217  and  _220
REMARK   93  A    between atoms: _220  and  _221
REMARK   94  A    between atoms: _224  and  _226
REMARK   95  A    between atoms: _226  and  _227
REMARK   96  A    between atoms: _226  and  _229
REMARK   97  A    between atoms: _229  and  _230
REMARK   98  A    between atoms: _230  and  _231
REMARK   99  A    between atoms: _231  and  _232
REMARK  100  A    between atoms: _232  and  _233
REMARK  101  A    between atoms: _237  and  _239
REMARK  102  A    between atoms: _239  and  _240
REMARK  103  A    between atoms: _239  and  _242
REMARK  104  A    between atoms: _242  and  _243
REMARK  105  A    between atoms: _249  and  _251
REMARK  106  A    between atoms: _251  and  _252
REMARK  107  A    between atoms: _251  and  _254
REMARK  108  A    between atoms: _254  and  _255
REMARK  109  A    between atoms: _261  and  _263
REMARK  110  A    between atoms: _263  and  _264
REMARK  111  A    between atoms: _267  and  _269
REMARK  112  A    between atoms: _269  and  _270
REMARK  113  A    between atoms: _269  and  _272
REMARK  114  A    between atoms: _272  and  _273
REMARK  115  A    between atoms: _273  and  _274
REMARK  116  A    between atoms: _276  and  _278
REMARK  117  A    between atoms: _278  and  _279
REMARK  118  A    between atoms: _278  and  _281
REMARK  119  A    between atoms: _281  and  _282
REMARK  120  A    between atoms: _282  and  _283
REMARK  121  A    between atoms: _283  and  _284
REMARK  122  A    between atoms: _284  and  _285
REMARK  123  A    between atoms: _289  and  _291
REMARK  124  A    between atoms: _291  and  _292
REMARK  125  A    between atoms: _291  and  _294
REMARK  126  A    between atoms: _294  and  _295
REMARK  127  A    between atoms: _300  and  _301
REMARK  128  A    between atoms: _303  and  _305
REMARK  129  A    between atoms: _305  and  _306
REMARK  130  A    between atoms: _305  and  _308
REMARK  131  A    between atoms: _308  and  _309
REMARK  132  A    between atoms: _314  and  _316
REMARK  133  A    between atoms: _316  and  _317
REMARK  134  A    between atoms: _316  and  _319
REMARK  135  A    between atoms: _319  and  _320
REMARK  136  A    between atoms: _323  and  _325
REMARK  137  A    between atoms: _325  and  _326
REMARK  138  A    between atoms: _325  and  _328
REMARK  139  A    between atoms: _331  and  _333
REMARK  140  A    between atoms: _333  and  _334
REMARK  141  A    between atoms: _333  and  _336
REMARK  142  A    between atoms: _336  and  _337
REMARK  143  A    between atoms: _342  and  _343
REMARK  144  A    between atoms: _345  and  _347
REMARK  145  A    between atoms: _347  and  _348
REMARK  146  A    between atoms: _347  and  _350
REMARK  147  A    between atoms: _350  and  _351
REMARK  148  A    between atoms: _351  and  _352
REMARK  149  A    between atoms: _352  and  _353
REMARK  150  A    between atoms: _362  and  _364
REMARK  151  A    between atoms: _364  and  _365
REMARK  152  A    between atoms: _364  and  _367
REMARK  153  A    between atoms: _367  and  _368
REMARK  154  A    between atoms: _373  and  _374
REMARK  155  A    between atoms: _376  and  _378
REMARK  156  A    between atoms: _378  and  _379
REMARK  157  A    between atoms: _378  and  _381
REMARK  158  A    between atoms: _381  and  _382
REMARK  159  A    between atoms: _385  and  _387
REMARK  160  A    between atoms: _387  and  _388
REMARK  161  A    between atoms: _387  and  _390
REMARK  162  A    between atoms: _390  and  _391
REMARK  163  A    between atoms: _393  and  _395
REMARK  164  A    between atoms: _395  and  _396
REMARK  165  A    between atoms: _395  and  _398
REMARK  166  A    between atoms: _398  and  _399
REMARK  167  A    between atoms: _405  and  _407
REMARK  168  A    between atoms: _407  and  _408
REMARK  169  A    between atoms: _407  and  _410
REMARK  170  A    between atoms: _410  and  _411
REMARK  171  A    between atoms: _411  and  _412
REMARK                            x       y       z     vdW  Elec       q    Type
REMARK                         _______ _______ _______ _____ _____    ______ ____
ROOT
ATOM      1  CB  GLN A   1      21.684  11.974 -37.789  0.00  0.00    +0.035 C 
ENDROOT
BRANCH   1   2
ATOM      2  CA  GLN A   1      22.372  12.092 -39.143  0.00  0.00    +0.134 C 
BRANCH   2   3
ATOM      3  N   GLN A   1      23.301  13.222 -39.157  0.00  0.00    -0.239 NA
ATOM      4  H   GLN A   1      23.288  13.893 -38.362  0.00  0.00    +0.142 HD
ENDBRANCH   2   3
BRANCH   2   5
ATOM      5  C   GLN A   1      21.333  12.153 -40.259  0.00  0.00    +0.224 C 
ATOM      6  O   GLN A   1      20.874  11.111 -40.735  0.00  0.00    -0.287 OA
ENDBRANCH   2   5
ENDBRANCH   1   2
BRANCH   1   7
ATOM      7  CG  GLN A   1      22.515  11.259 -36.745  0.00  0.00    +0.087 C 
BRANCH   7   8
ATOM      8  CD  GLN A   1      22.560   9.765 -36.976  0.00  0.00    +0.219 C 
ATOM      9  OE1 GLN A   1      21.565   9.069 -36.774  0.00  0.00    -0.275 OA
ATOM     10  NE2 GLN A   1      23.715   9.261 -37.409  0.00  0.00    -0.329 N 
ATOM     11 HE21 GLN A   1      24.530   9.888 -37.566  0.00  0.00    +0.145 HD
ATOM     12 HE22 GLN A   1      23.802   8.241 -37.590  0.00  0.00    +0.145 HD
ENDBRANCH   7   8
ENDBRANCH   1   7
TORSDOF 5
REMARK  Name = ../refined-set-2016/2x8z/2x8z_pocket.pdb
REMARK  171 active torsions:
REMARK  status: ('A' for Active; 'I' for Inactive)
REMARK    1  A    between atoms: _1  and  _3
REMARK    2  A    between atoms: _3  and  _4
REMARK    3  A    between atoms: _3  and  _6
REMARK    4  A    between atoms: _6  and  _7
REMARK    5  A    between atoms: _7  and  _8
REMARK    6  A    between atoms: _11  and  _13
REMARK    7  A    between atoms: _13  and  _14
REMARK    8  A    between atoms: _13  and  _16
REMARK    9  A    between atoms: _16  and  _17
REMARK   10  A    between atoms: _22  and  _24
REMARK   11  A    between atoms: _24  and  _25
REMARK   12  A    between atoms: _24  and  _27
REMARK   13  A    between atoms: _27  and  _28
REMARK   14  A    between atoms: _38  and  _40
REMARK   15  A    between atoms: _40  and  _41
REMARK   16  A    between atoms: _40  and  _43
REMARK   17  A    between atoms: _43  and  _44
REMARK   18  A    between atoms: _44  and  _45
REMARK   19  A    between atoms: _50  and  _52
REMARK   20  A    between atoms: _52  and  _53
REMARK   21  A    between atoms: _52  and  _55
REMARK   22  A    between atoms: _55  and  _56
REMARK   23  A    between atoms: _56  and  _57
REMARK   24  A    between atoms: _62  and  _64
REMARK   25  A    between atoms: _64  and  _65
REMARK   26  A    between atoms: _64  and  _67
REMARK   27  A    between atoms: _69  and  _71
REMARK   28  A    between atoms: _71  and  _72
REMARK   29  A    between atoms: _71  and  _74
REMARK   30  A    between atoms: _74  and  _75
REMARK   31  A    between atoms: _80  and  _82
REMARK   32  A    between atoms: _82  and  _83
REMARK   33  A    between atoms: _86  and  _88
REMARK   34  A    between atoms: _88  and  _89
REMARK   35  A    between atoms: _88  and  _91
REMARK   36  A    between atoms: _91  and  _92
REMARK   37  A    between atoms: _94  and  _96
REMARK   38  A    between atoms: _96  and  _97
REMARK   39  A    between atoms: _100  and  _102
REMARK   40  A    between atoms: _102  and  _103
REMARK   41  A    between atoms: _102  and  _105
REMARK   42  A    between atoms: _105  and  _106
REMARK   43  A    between atoms: _106  and  _107
REMARK   44  A    between atoms: _112  and  _114
REMARK   45  A    between atoms: _114  and  _115
REMARK   46  A    between atoms: _114  and  _117
REMARK   47  A    between atoms: _117  and  _118
REMARK   48  A    between atoms: _118  and  _119
REMARK   49  A    between atoms: _124  and  _126
REMARK   50  A    between atoms: _126  and  _127
REMARK   51  A    between atoms: _126  and  _129
REMARK   52  A    between atoms: _129  and  _130
REMARK   53  A    between atoms: _136  and  _138
REMARK   54  A    between atoms: _138  and  _139
REMARK   55  A    between atoms: _138  and  _141
REMARK   56  A    between atoms: _141  and  _142
REMARK   57  A    between atoms: _145  and  _147
REMARK   58  A    between atoms: _147  and  _148
REMARK   59  A    between atoms: _147  and  _150
REMARK   60  A    between atoms: _153  and  _155
REMARK   61  A    between atoms: _155  and  _156
REMARK   62  A    between atoms: _155  and  _158
REMARK   63  A    between atoms: _158  and  _159
REMARK   64  A    between atoms: _163  and  ZN_417
REMARK   65  A    between atoms: _164  and  _166
REMARK   66  A    between atoms: _166  and  _167
REMARK   67  A    between atoms: _166  and  _169
REMARK   68  A    between atoms: _169  and  _170
REMARK   69  A    between atoms: _170  and  _171
REMARK   70  A    between atoms: _174  and  _176
REMARK   71  A    between atoms: _176  and  _177
REMARK   72  A    between atoms: _176  and  _179
REMARK   73  A    between atoms: _179  and  _180
REMARK   74  A    between atoms: _184  and  ZN_417
REMARK   75  A    between atoms: _185  and  _187
REMARK   76  A    between atoms: _187  and  _188
REMARK   77  A    between atoms: _187  and  _190
REMARK   78  A    between atoms: _190  and  _191
REMARK   79  A    between atoms: _196  and  _198
REMARK   80  A    between atoms: _198  and  _199
REMARK   81  A    between atoms: _198  and  _201
REMARK   82  A    between atoms: _201  and  _202
REMARK   83  A    between atoms: _202  and  _203
REMARK   84  A    between atoms: _203  and  _204
REMARK   85  A    between atoms: _204  and  ZN_417
REMARK   86  A    between atoms: _206  and  _208
REMARK   87  A    between atoms: _208  and  _209
REMARK   88  A    between atoms: _208  and  _211
REMARK   89  A    between atoms: _211  and  _212
REMARK   90  A    between atoms: _215  and  _217
REMARK   91  A    between atoms: _217  and  _218
REMARK   92  A    between atoms: _217  and  _220
REMARK   93  A    between atoms: _220  and  _221
REMARK   94  A    between atoms: _224  and  _226
REMARK   95  A    between atoms: _226  and  _227
REMARK   96  A    between atoms: _226  and  _229
REMARK   97  A    between atoms: _229  and  _230
REMARK   98  A    between atoms: _230  and  _231
REMARK   99  A    between atoms: _231  and  _232
REMARK  100  A    between atoms: _232  and  _233
REMARK  101  A    between atoms: _237  and  _239
REMARK  102  A    between atoms: _239  and  _240
REMARK  103  A    between atoms: _239  and  _242
REMARK  104  A    between atoms: _242  and  _243
REMARK  105  A    between atoms: _249  and  _251
REMARK  106  A    between atoms: _251  and  _252
REMARK  107  A    between atoms: _251  and  _254
REMARK  108  A    between atoms: _254  and  _255
REMARK  109  A    between atoms: _261  and  _263
REMARK  110  A    between atoms: _263  and  _264
REMARK  111  A    between atoms: _267  and  _269
REMARK  112  A    between atoms: _269  and  _270
REMARK  113  A    between atoms: _269  and  _272
REMARK  114  A    between atoms: _272  and  _273
REMARK  115  A    between atoms: _273  and  _274
REMARK  116  A    between atoms: _276  and  _278
REMARK  117  A    between atoms: _278  and  _279
REMARK  118  A    between atoms: _278  and  _281
REMARK  119  A    between atoms: _281  and  _282
REMARK  120  A    between atoms: _282  and  _283
REMARK  121  A    between atoms: _283  and  _284
REMARK  122  A    between atoms: _284  and  _285
REMARK  123  A    between atoms: _289  and  _291
REMARK  124  A    between atoms: _291  and  _292
REMARK  125  A    between atoms: _291  and  _294
REMARK  126  A    between atoms: _294  and  _295
REMARK  127  A    between atoms: _300  and  _301
REMARK  128  A    between atoms: _303  and  _305
REMARK  129  A    between atoms: _305  and  _306
REMARK  130  A    between atoms: _305  and  _308
REMARK  131  A    between atoms: _308  and  _309
REMARK  132  A    between atoms: _314  and  _316
REMARK  133  A    between atoms: _316  and  _317
REMARK  134  A    between atoms: _316  and  _319
REMARK  135  A    between atoms: _319  and  _320
REMARK  136  A    between atoms: _323  and  _325
REMARK  137  A    between atoms: _325  and  _326
REMARK  138  A    between atoms: _325  and  _328
REMARK  139  A    between atoms: _331  and  _333
REMARK  140  A    between atoms: _333  and  _334
REMARK  141  A    between atoms: _333  and  _336
REMARK  142  A    between atoms: _336  and  _337
REMARK  143  A    between atoms: _342  and  _343
REMARK  144  A    between atoms: _345  and  _347
REMARK  145  A    between atoms: _347  and  _348
REMARK  146  A    between atoms: _347  and  _350
REMARK  147  A    between atoms: _350  and  _351
REMARK  148  A    between atoms: _351  and  _352
REMARK  149  A    between atoms: _352  and  _353
REMARK  150  A    between atoms: _362  and  _364
REMARK  151  A    between atoms: _364  and  _365
REMARK  152  A    between atoms: _364  and  _367
REMARK  153  A    between atoms: _367  and  _368
REMARK  154  A    between atoms: _373  and  _374
REMARK  155  A    between atoms: _376  and  _378
REMARK  156  A    between atoms: _378  and  _379
REMARK  157  A    between atoms: _378  and  _381
REMARK  158  A    between atoms: _381  and  _382
REMARK  159  A    between atoms: _385  and  _387
REMARK  160  A    between atoms: _387  and  _388
REMARK  161  A    between atoms: _387  and  _390
REMARK  162  A    between atoms: _390  and  _391
REMARK  163  A    between atoms: _393  and  _395
REMARK  164  A    between atoms: _395  and  _396
REMARK  165  A    between atoms: _395  and  _398
REMARK  166  A    between atoms: _398  and  _399
REMARK  167  A    between atoms: _405  and  _407
REMARK  168  A    between atoms: _407  and  _408
REMARK  169  A    between atoms: _407  and  _410
REMARK  170  A    between atoms: _410  and  _411
REMARK  171  A    between atoms: _411  and  _412
REMARK                            x       y       z     vdW  Elec       q    Type
REMARK                         _______ _______ _______ _____ _____    ______ ____
ROOT
ATOM      1  CA  THR A   2      23.175   9.212 -42.890  0.00  0.00    +0.176 C 
ENDROOT
BRANCH   1   3
ATOM      2  C   PHE A   1      22.892  11.211 -44.281  0.00  0.00    +0.239 C 
ATOM      3  N   THR A   2      23.138  10.663 -43.094  0.00  0.00    -0.295 N 
ATOM      4  H   THR A   2      23.311  11.287 -42.280  0.00  0.00    +0.150 HD
ATOM      5  O   PHE A   1      22.729  10.552 -45.305  0.00  0.00    -0.274 OA
BRANCH   2   6
ATOM      6  CA  PHE A   1      22.811  12.734 -44.331  0.00  0.00    +0.149 C 
BRANCH   6   7
ATOM      7  N   PHE A   1      22.037  13.260 -43.206  0.00  0.00    -0.238 NA
ATOM      8  H   PHE A   1      22.525  13.815 -42.474  0.00  0.00    +0.142 HD
ENDBRANCH   6   7
BRANCH   6   9
ATOM      9  CB  PHE A   1      24.225  13.334 -44.391  0.00  0.00    +0.053 C 
BRANCH   9  10
ATOM     10  CG  PHE A   1      24.256  14.841 -44.476  0.00  0.00    -0.020 A 
ATOM     11  CD2 PHE A   1      25.373  15.544 -44.028  0.00  0.00    -0.004 A 
ATOM     12  CE2 PHE A   1      25.425  16.932 -44.111  0.00  0.00    -0.000 A 
ATOM     13  CZ  PHE A   1      24.352  17.635 -44.645  0.00  0.00    -0.000 A 
ATOM     14  CE1 PHE A   1      23.233  16.947 -45.107  0.00  0.00    -0.000 A 
ATOM     15  CD1 PHE A   1      23.196  15.558 -45.032  0.00  0.00    -0.004 A 
ENDBRANCH   9  10
ENDBRANCH   6   9
ENDBRANCH   2   6
ENDBRANCH   1   3
BRANCH   1  16
ATOM     16  C   THR A   2      21.846   8.533 -43.268  0.00  0.00    +0.243 C 
ATOM     17  N   VAL A   3      20.722   9.158 -42.911  0.00  0.00    -0.298 N 
ATOM     18  H   VAL A   3      20.783  10.028 -42.344  0.00  0.00    +0.150 HD
ATOM     19  O   THR A   2      21.850   7.457 -43.877  0.00  0.00    -0.273 OA
BRANCH  17  20
ATOM     20  CA  VAL A   3      19.403   8.647 -43.299  0.00  0.00    +0.137 C 
BRANCH  20  21
ATOM     21  CB  VAL A   3      18.238   9.503 -42.723  0.00  0.00    +0.026 C 
ATOM     22  CG2 VAL A   3      18.118   9.289 -41.224  0.00  0.00    +0.002 C 
ATOM     23  CG1 VAL A   3      16.913   9.165 -43.412  0.00  0.00    +0.002 C 
ENDBRANCH  20  21
BRANCH  20  24
ATOM     24  C   VAL A   3      19.305   8.532 -44.823  0.00  0.00    +0.227 C 
ATOM     25  O   VAL A   3      18.863   7.509 -45.336  0.00  0.00    -0.286 OA
ENDBRANCH  20  24
ENDBRANCH  17  20
ENDBRANCH   1  16
BRANCH   1  26
ATOM     26  CB  THR A   2      23.567   8.844 -41.441  0.00  0.00    +0.137 C 
ATOM     27  CG2 THR A   2      23.697   7.328 -41.277  0.00  0.00    +0.034 C 
BRANCH  26  28
ATOM     28  OG1 THR A   2      24.822   9.455 -41.111  0.00  0.00    -0.382 OA
ATOM     29  HG1 THR A   2      25.070   9.217 -40.182  0.00  0.00    +0.210 HD
ENDBRANCH  26  28
ENDBRANCH   1  26
TORSDOF 11
REMARK  Name = ../refined-set-2016/2x8z/2x8z_pocket.pdb
REMARK  171 active torsions:
REMARK  status: ('A' for Active; 'I' for Inactive)
REMARK    1  A    between atoms: _1  and  _3
REMARK    2  A    between atoms: _3  and  _4
REMARK    3  A    between atoms: _3  and  _6
REMARK    4  A    between atoms: _6  and  _7
REMARK    5  A    between atoms: _7  and  _8
REMARK    6  A    between atoms: _11  and  _13
REMARK    7  A    between atoms: _13  and  _14
REMARK    8  A    between atoms: _13  and  _16
REMARK    9  A    between atoms: _16  and  _17
REMARK   10  A    between atoms: _22  and  _24
REMARK   11  A    between atoms: _24  and  _25
REMARK   12  A    between atoms: _24  and  _27
REMARK   13  A    between atoms: _27  and  _28
REMARK   14  A    between atoms: _38  and  _40
REMARK   15  A    between atoms: _40  and  _41
REMARK   16  A    between atoms: _40  and  _43
REMARK   17  A    between atoms: _43  and  _44
REMARK   18  A    between atoms: _44  and  _45
REMARK   19  A    between atoms: _50  and  _52
REMARK   20  A    between atoms: _52  and  _53
REMARK   21  A    between atoms: _52  and  _55
REMARK   22  A    between atoms: _55  and  _56
REMARK   23  A    between atoms: _56  and  _57
REMARK   24  A    between atoms: _62  and  _64
REMARK   25  A    between atoms: _64  and  _65
REMARK   26  A    between atoms: _64  and  _67
REMARK   27  A    between atoms: _69  and  _71
REMARK   28  A    between atoms: _71  and  _72
REMARK   29  A    between atoms: _71  and  _74
REMARK   30  A    between atoms: _74  and  _75
REMARK   31  A    between atoms: _80  and  _82
REMARK   32  A    between atoms: _82  and  _83
REMARK   33  A    between atoms: _86  and  _88
REMARK   34  A    between atoms: _88  and  _89
REMARK   35  A    between atoms: _88  and  _91
REMARK   36  A    between atoms: _91  and  _92
REMARK   37  A    between atoms: _94  and  _96
REMARK   38  A    between atoms: _96  and  _97
REMARK   39  A    between atoms: _100  and  _102
REMARK   40  A    between atoms: _102  and  _103
REMARK   41  A    between atoms: _102  and  _105
REMARK   42  A    between atoms: _105  and  _106
REMARK   43  A    between atoms: _106  and  _107
REMARK   44  A    between atoms: _112  and  _114
REMARK   45  A    between atoms: _114  and  _115
REMARK   46  A    between atoms: _114  and  _117
REMARK   47  A    between atoms: _117  and  _118
REMARK   48  A    between atoms: _118  and  _119
REMARK   49  A    between atoms: _124  and  _126
REMARK   50  A    between atoms: _126  and  _127
REMARK   51  A    between atoms: _126  and  _129
REMARK   52  A    between atoms: _129  and  _130
REMARK   53  A    between atoms: _136  and  _138
REMARK   54  A    between atoms: _138  and  _139
REMARK   55  A    between atoms: _138  and  _141
REMARK   56  A    between atoms: _141  and  _142
REMARK   57  A    between atoms: _145  and  _147
REMARK   58  A    between atoms: _147  and  _148
REMARK   59  A    between atoms: _147  and  _150
REMARK   60  A    between atoms: _153  and  _155
REMARK   61  A    between atoms: _155  and  _156
REMARK   62  A    between atoms: _155  and  _158
REMARK   63  A    between atoms: _158  and  _159
REMARK   64  A    between atoms: _163  and  ZN_417
REMARK   65  A    between atoms: _164  and  _166
REMARK   66  A    between atoms: _166  and  _167
REMARK   67  A    between atoms: _166  and  _169
REMARK   68  A    between atoms: _169  and  _170
REMARK   69  A    between atoms: _170  and  _171
REMARK   70  A    between atoms: _174  and  _176
REMARK   71  A    between atoms: _176  and  _177
REMARK   72  A    between atoms: _176  and  _179
REMARK   73  A    between atoms: _179  and  _180
REMARK   74  A    between atoms: _184  and  ZN_417
REMARK   75  A    between atoms: _185  and  _187
REMARK   76  A    between atoms: _187  and  _188
REMARK   77  A    between atoms: _187  and  _190
REMARK   78  A    between atoms: _190  and  _191
REMARK   79  A    between atoms: _196  and  _198
REMARK   80  A    between atoms: _198  and  _199
REMARK   81  A    between atoms: _198  and  _201
REMARK   82  A    between atoms: _201  and  _202
REMARK   83  A    between atoms: _202  and  _203
REMARK   84  A    between atoms: _203  and  _204
REMARK   85  A    between atoms: _204  and  ZN_417
REMARK   86  A    between atoms: _206  and  _208
REMARK   87  A    between atoms: _208  and  _209
REMARK   88  A    between atoms: _208  and  _211
REMARK   89  A    between atoms: _211  and  _212
REMARK   90  A    between atoms: _215  and  _217
REMARK   91  A    between atoms: _217  and  _218
REMARK   92  A    between atoms: _217  and  _220
REMARK   93  A    between atoms: _220  and  _221
REMARK   94  A    between atoms: _224  and  _226
REMARK   95  A    between atoms: _226  and  _227
REMARK   96  A    between atoms: _226  and  _229
REMARK   97  A    between atoms: _229  and  _230
REMARK   98  A    between atoms: _230  and  _231
REMARK   99  A    between atoms: _231  and  _232
REMARK  100  A    between atoms: _232  and  _233
REMARK  101  A    between atoms: _237  and  _239
REMARK  102  A    between atoms: _239  and  _240
REMARK  103  A    between atoms: _239  and  _242
REMARK  104  A    between atoms: _242  and  _243
REMARK  105  A    between atoms: _249  and  _251
REMARK  106  A    between atoms: _251  and  _252
REMARK  107  A    between atoms: _251  and  _254
REMARK  108  A    between atoms: _254  and  _255
REMARK  109  A    between atoms: _261  and  _263
REMARK  110  A    between atoms: _263  and  _264
REMARK  111  A    between atoms: _267  and  _269
REMARK  112  A    between atoms: _269  and  _270
REMARK  113  A    between atoms: _269  and  _272
REMARK  114  A    between atoms: _272  and  _273
REMARK  115  A    between atoms: _273  and  _274
REMARK  116  A    between atoms: _276  and  _278
REMARK  117  A    between atoms: _278  and  _279
REMARK  118  A    between atoms: _278  and  _281
REMARK  119  A    between atoms: _281  and  _282
REMARK  120  A    between atoms: _282  and  _283
REMARK  121  A    between atoms: _283  and  _284
REMARK  122  A    between atoms: _284  and  _285
REMARK  123  A    between atoms: _289  and  _291
REMARK  124  A    between atoms: _291  and  _292
REMARK  125  A    between atoms: _291  and  _294
REMARK  126  A    between atoms: _294  and  _295
REMARK  127  A    between atoms: _300  and  _301
REMARK  128  A    between atoms: _303  and  _305
REMARK  129  A    between atoms: _305  and  _306
REMARK  130  A    between atoms: _305  and  _308
REMARK  131  A    between atoms: _308  and  _309
REMARK  132  A    between atoms: _314  and  _316
REMARK  133  A    between atoms: _316  and  _317
REMARK  134  A    between atoms: _316  and  _319
REMARK  135  A    between atoms: _319  and  _320
REMARK  136  A    between atoms: _323  and  _325
REMARK  137  A    between atoms: _325  and  _326
REMARK  138  A    between atoms: _325  and  _328
REMARK  139  A    between atoms: _331  and  _333
REMARK  140  A    between atoms: _333  and  _334
REMARK  141  A    between atoms: _333  and  _336
REMARK  142  A    between atoms: _336  and  _337
REMARK  143  A    between atoms: _342  and  _343
REMARK  144  A    between atoms: _345  and  _347
REMARK  145  A    between atoms: _347  and  _348
REMARK  146  A    between atoms: _347  and  _350
REMARK  147  A    between atoms: _350  and  _351
REMARK  148  A    between atoms: _351  and  _352
REMARK  149  A    between atoms: _352  and  _353
REMARK  150  A    between atoms: _362  and  _364
REMARK  151  A    between atoms: _364  and  _365
REMARK  152  A    between atoms: _364  and  _367
REMARK  153  A    between atoms: _367  and  _368
REMARK  154  A    between atoms: _373  and  _374
REMARK  155  A    between atoms: _376  and  _378
REMARK  156  A    between atoms: _378  and  _379
REMARK  157  A    between atoms: _378  and  _381
REMARK  158  A    between atoms: _381  and  _382
REMARK  159  A    between atoms: _385  and  _387
REMARK  160  A    between atoms: _387  and  _388
REMARK  161  A    between atoms: _387  and  _390
REMARK  162  A    between atoms: _390  and  _391
REMARK  163  A    between atoms: _393  and  _395
REMARK  164  A    between atoms: _395  and  _396
REMARK  165  A    between atoms: _395  and  _398
REMARK  166  A    between atoms: _398  and  _399
REMARK  167  A    between atoms: _405  and  _407
REMARK  168  A    between atoms: _407  and  _408
REMARK  169  A    between atoms: _407  and  _410
REMARK  170  A    between atoms: _410  and  _411
REMARK  171  A    between atoms: _411  and  _412
REMARK                            x       y       z     vdW  Elec       q    Type
REMARK                         _______ _______ _______ _____ _____    ______ ____
ROOT
ATOM      1 ZN   UNK A   1      26.533   2.348 -46.836  0.00  0.00    +0.000 Zn
ENDROOT
BRANCH   1   4
ATOM      2  C   UNK A   1      25.069   6.276 -46.733  0.00  0.00    +0.000 A 
ATOM      3  C   UNK A   1      25.168   5.034 -46.202  0.00  0.00    +0.000 A 
ATOM      4  N   UNK A   1      26.223   4.410 -46.825  0.00  0.00    +0.000 N 
ATOM      5  C   UNK A   1      26.750   5.239 -47.707  0.00  0.00    +0.000 A 
ATOM      6  N   UNK A   1      26.067   6.370 -47.678  0.00  0.00    +0.000 NA
BRANCH   2   7
ATOM      7  C   UNK A   1      24.104   7.392 -46.466  0.00  0.00    +0.000 C 
BRANCH   7   8
ATOM      8  C   UNK A   1      22.840   7.333 -47.336  0.00  0.00    +0.000 C 
BRANCH   8   9
ATOM      9  C   UNK A   1      22.217   5.935 -47.272  0.00  0.00    +0.000 C 
ATOM     10  N   UNK A   2      21.618   5.609 -46.130  0.00  0.00    +0.000 N 
ATOM     11  H   UNK A   2      21.577   6.315 -45.367  0.00  0.00    +0.000 HD
ATOM     12  O   UNK A   1      22.282   5.175 -48.239  0.00  0.00    +0.000 OA
BRANCH  10  13
ATOM     13  C   UNK A   2      21.014   4.294 -45.906  0.00  0.00    +0.000 C 
BRANCH  13  14
ATOM     14  C   UNK A   2      19.826   4.033 -46.822  0.00  0.00    +0.000 C 
ATOM     15  O   UNK A   2      19.631   2.904 -47.291  0.00  0.00    +0.000 OA
ENDBRANCH  13  14
BRANCH  13  16
ATOM     16  C   UNK A   2      20.593   4.122 -44.443  0.00  0.00    +0.000 C 
BRANCH  16  17
ATOM     17  C   UNK A   2      21.743   4.138 -43.447  0.00  0.00    +0.000 C 
BRANCH  17  18
ATOM     18  C   UNK A   2      22.835   3.142 -43.784  0.00  0.00    +0.000 C 
ATOM     19  O   UNK A   2      24.007   3.446 -43.496  0.00  0.00    +0.000 OA
ATOM     20  O   UNK A   2      22.531   2.060 -44.331  0.00  0.00    +0.000 OA
ENDBRANCH  17  18
ENDBRANCH  16  17
ENDBRANCH  13  16
ENDBRANCH  10  13
ENDBRANCH   8   9
BRANCH   8  21
ATOM     21  N   UNK A   1      21.869   8.347 -46.932  0.00  0.00    +0.000 NA
ATOM     22  H   UNK A   1      22.073   8.942 -46.104  0.00  0.00    +0.000 HD
ENDBRANCH   8  21
ENDBRANCH   7   8
ENDBRANCH   2   7
ENDBRANCH   1   4
BRANCH   1  23
ATOM     23  N   UNK A   1      24.983   1.641 -48.022  0.00  0.00    +0.000 N 
ATOM     24  C   UNK A   1      23.645   1.609 -47.715  0.00  0.00    +0.000 A 
ATOM     25  C   UNK A   1      23.008   1.030 -48.761  0.00  0.00    +0.000 A 
ATOM     26  N   UNK A   1      23.989   0.705 -49.674  0.00  0.00    +0.000 NA
ATOM     27  C   UNK A   1      25.164   1.094 -49.211  0.00  0.00    +0.000 A 
BRANCH  25  28
ATOM     28  C   UNK A   1      21.561   0.705 -48.972  0.00  0.00    +0.000 C 
BRANCH  28  29
ATOM     29  C   UNK A   1      20.972   1.265 -50.265  0.00  0.00    +0.000 C 
BRANCH  29  30
ATOM     30  C   UNK A   1      19.602   0.626 -50.509  0.00  0.00    +0.000 C 
ATOM     31  O   UNK A   1      19.455  -0.218 -51.395  0.00  0.00    +0.000 OA
ENDBRANCH  29  30
BRANCH  29  32
ATOM     32  N   UNK A   1      20.842   2.722 -50.207  0.00  0.00    +0.000 NA
ATOM     33  H   UNK A   1      21.087   3.216 -49.325  0.00  0.00    +0.000 HD
ENDBRANCH  29  32
ENDBRANCH  28  29
ENDBRANCH  25  28
ENDBRANCH   1  23
BRANCH   1  34
ATOM     34  O   UNK A   2      27.995   2.386 -48.232  0.00  0.00    +0.000 OA
BRANCH  34  35
ATOM     35  C   UNK A   2      28.460   1.436 -48.895  0.00  0.00    +0.000 C 
ATOM     36  O   UNK A   2      28.179   0.247 -48.646  0.00  0.00    +0.000 OA
BRANCH  35  37
ATOM     37  C   UNK A   2      29.411   1.745 -50.040  0.00  0.00    +0.000 C 
BRANCH  37  38
ATOM     38  C   UNK A   2      29.129   3.096 -50.692  0.00  0.00    +0.000 C 
BRANCH  38  39
ATOM     39  C   UNK A   2      27.691   3.248 -51.222  0.00  0.00    +0.000 C 
BRANCH  39  40
ATOM     40  N   UNK A   2      27.395   2.206 -52.209  0.00  0.00    +0.000 N 
ATOM     41  C   UNK A   1      26.146   1.877 -52.526  0.00  0.00    +0.000 C 
ATOM     42  O   UNK A   1      25.158   2.438 -52.040  0.00  0.00    +0.000 OA
ATOM     43  H   UNK A   2      28.182   1.711 -52.674  0.00  0.00    +0.000 HD
BRANCH  41  44
ATOM     44  C   UNK A   1      25.979   0.760 -53.565  0.00  0.00    +0.000 C 
BRANCH  44  45
ATOM     45  N   UNK A   1      26.978   0.861 -54.624  0.00  0.00    +0.000 NA
ATOM     46  H   UNK A   1      27.653   0.081 -54.758  0.00  0.00    +0.000 HD
ENDBRANCH  44  45
BRANCH  44  47
ATOM     47  C   UNK A   1      26.040  -0.612 -52.892  0.00  0.00    +0.000 C 
BRANCH  47  48
ATOM     48  C   UNK A   1      24.719  -1.312 -52.829  0.00  0.00    +0.000 A 
ATOM     49  N   UNK A   1      23.643  -0.811 -52.127  0.00  0.00    +0.000 NA
ATOM     50  C   UNK A   1      22.617  -1.633 -52.254  0.00  0.00    +0.000 A 
ATOM     51  N   UNK A   1      22.987  -2.650 -53.010  0.00  0.00    +0.000 NA
ATOM     52  C   UNK A   1      24.298  -2.472 -53.386  0.00  0.00    +0.000 A 
ENDBRANCH  47  48
ENDBRANCH  44  47
ENDBRANCH  41  44
ENDBRANCH  39  40
BRANCH  39  53
ATOM     53  C   UNK A   2      27.457   4.664 -51.744  0.00  0.00    +0.000 C 
ATOM     54  O   UNK A   2      27.240   5.587 -50.957  0.00  0.00    +0.000 OA
ENDBRANCH  39  53
ENDBRANCH  38  39
ENDBRANCH  37  38
ENDBRANCH  35  37
ENDBRANCH  34  35
ENDBRANCH   1  34
TORSDOF 26
REMARK  Name = ../refined-set-2016/2x8z/2x8z_pocket.pdb
REMARK  171 active torsions:
REMARK  status: ('A' for Active; 'I' for Inactive)
REMARK    1  A    between atoms: _1  and  _3
REMARK    2  A    between atoms: _3  and  _4
REMARK    3  A    between atoms: _3  and  _6
REMARK    4  A    between atoms: _6  and  _7
REMARK    5  A    between atoms: _7  and  _8
REMARK    6  A    between atoms: _11  and  _13
REMARK    7  A    between atoms: _13  and  _14
REMARK    8  A    between atoms: _13  and  _16
REMARK    9  A    between atoms: _16  and  _17
REMARK   10  A    between atoms: _22  and  _24
REMARK   11  A    between atoms: _24  and  _25
REMARK   12  A    between atoms: _24  and  _27
REMARK   13  A    between atoms: _27  and  _28
REMARK   14  A    between atoms: _38  and  _40
REMARK   15  A    between atoms: _40  and  _41
REMARK   16  A    between atoms: _40  and  _43
REMARK   17  A    between atoms: _43  and  _44
REMARK   18  A    between atoms: _44  and  _45
REMARK   19  A    between atoms: _50  and  _52
REMARK   20  A    between atoms: _52  and  _53
REMARK   21  A    between atoms: _52  and  _55
REMARK   22  A    between atoms: _55  and  _56
REMARK   23  A    between atoms: _56  and  _57
REMARK   24  A    between atoms: _62  and  _64
REMARK   25  A    between atoms: _64  and  _65
REMARK   26  A    between atoms: _64  and  _67
REMARK   27  A    between atoms: _69  and  _71
REMARK   28  A    between atoms: _71  and  _72
REMARK   29  A    between atoms: _71  and  _74
REMARK   30  A    between atoms: _74  and  _75
REMARK   31  A    between atoms: _80  and  _82
REMARK   32  A    between atoms: _82  and  _83
REMARK   33  A    between atoms: _86  and  _88
REMARK   34  A    between atoms: _88  and  _89
REMARK   35  A    between atoms: _88  and  _91
REMARK   36  A    between atoms: _91  and  _92
REMARK   37  A    between atoms: _94  and  _96
REMARK   38  A    between atoms: _96  and  _97
REMARK   39  A    between atoms: _100  and  _102
REMARK   40  A    between atoms: _102  and  _103
REMARK   41  A    between atoms: _102  and  _105
REMARK   42  A    between atoms: _105  and  _106
REMARK   43  A    between atoms: _106  and  _107
REMARK   44  A    between atoms: _112  and  _114
REMARK   45  A    between atoms: _114  and  _115
REMARK   46  A    between atoms: _114  and  _117
REMARK   47  A    between atoms: _117  and  _118
REMARK   48  A    between atoms: _118  and  _119
REMARK   49  A    between atoms: _124  and  _126
REMARK   50  A    between atoms: _126  and  _127
REMARK   51  A    between atoms: _126  and  _129
REMARK   52  A    between atoms: _129  and  _130
REMARK   53  A    between atoms: _136  and  _138
REMARK   54  A    between atoms: _138  and  _139
REMARK   55  A    between atoms: _138  and  _141
REMARK   56  A    between atoms: _141  and  _142
REMARK   57  A    between atoms: _145  and  _147
REMARK   58  A    between atoms: _147  and  _148
REMARK   59  A    between atoms: _147  and  _150
REMARK   60  A    between atoms: _153  and  _155
REMARK   61  A    between atoms: _155  and  _156
REMARK   62  A    between atoms: _155  and  _158
REMARK   63  A    between atoms: _158  and  _159
REMARK   64  A    between atoms: _163  and  ZN_417
REMARK   65  A    between atoms: _164  and  _166
REMARK   66  A    between atoms: _166  and  _167
REMARK   67  A    between atoms: _166  and  _169
REMARK   68  A    between atoms: _169  and  _170
REMARK   69  A    between atoms: _170  and  _171
REMARK   70  A    between atoms: _174  and  _176
REMARK   71  A    between atoms: _176  and  _177
REMARK   72  A    between atoms: _176  and  _179
REMARK   73  A    between atoms: _179  and  _180
REMARK   74  A    between atoms: _184  and  ZN_417
REMARK   75  A    between atoms: _185  and  _187
REMARK   76  A    between atoms: _187  and  _188
REMARK   77  A    between atoms: _187  and  _190
REMARK   78  A    between atoms: _190  and  _191
REMARK   79  A    between atoms: _196  and  _198
REMARK   80  A    between atoms: _198  and  _199
REMARK   81  A    between atoms: _198  and  _201
REMARK   82  A    between atoms: _201  and  _202
REMARK   83  A    between atoms: _202  and  _203
REMARK   84  A    between atoms: _203  and  _204
REMARK   85  A    between atoms: _204  and  ZN_417
REMARK   86  A    between atoms: _206  and  _208
REMARK   87  A    between atoms: _208  and  _209
REMARK   88  A    between atoms: _208  and  _211
REMARK   89  A    between atoms: _211  and  _212
REMARK   90  A    between atoms: _215  and  _217
REMARK   91  A    between atoms: _217  and  _218
REMARK   92  A    between atoms: _217  and  _220
REMARK   93  A    between atoms: _220  and  _221
REMARK   94  A    between atoms: _224  and  _226
REMARK   95  A    between atoms: _226  and  _227
REMARK   96  A    between atoms: _226  and  _229
REMARK   97  A    between atoms: _229  and  _230
REMARK   98  A    between atoms: _230  and  _231
REMARK   99  A    between atoms: _231  and  _232
REMARK  100  A    between atoms: _232  and  _233
REMARK  101  A    between atoms: _237  and  _239
REMARK  102  A    between atoms: _239  and  _240
REMARK  103  A    between atoms: _239  and  _242
REMARK  104  A    between atoms: _242  and  _243
REMARK  105  A    between atoms: _249  and  _251
REMARK  106  A    between atoms: _251  and  _252
REMARK  107  A    between atoms: _251  and  _254
REMARK  108  A    between atoms: _254  and  _255
REMARK  109  A    between atoms: _261  and  _263
REMARK  110  A    between atoms: _263  and  _264
REMARK  111  A    between atoms: _267  and  _269
REMARK  112  A    between atoms: _269  and  _270
REMARK  113  A    between atoms: _269  and  _272
REMARK  114  A    between atoms: _272  and  _273
REMARK  115  A    between atoms: _273  and  _274
REMARK  116  A    between atoms: _276  and  _278
REMARK  117  A    between atoms: _278  and  _279
REMARK  118  A    between atoms: _278  and  _281
REMARK  119  A    between atoms: _281  and  _282
REMARK  120  A    between atoms: _282  and  _283
REMARK  121  A    between atoms: _283  and  _284
REMARK  122  A    between atoms: _284  and  _285
REMARK  123  A    between atoms: _289  and  _291
REMARK  124  A    between atoms: _291  and  _292
REMARK  125  A    between atoms: _291  and  _294
REMARK  126  A    between atoms: _294  and  _295
REMARK  127  A    between atoms: _300  and  _301
REMARK  128  A    between atoms: _303  and  _305
REMARK  129  A    between atoms: _305  and  _306
REMARK  130  A    between atoms: _305  and  _308
REMARK  131  A    between atoms: _308  and  _309
REMARK  132  A    between atoms: _314  and  _316
REMARK  133  A    between atoms: _316  and  _317
REMARK  134  A    between atoms: _316  and  _319
REMARK  135  A    between atoms: _319  and  _320
REMARK  136  A    between atoms: _323  and  _325
REMARK  137  A    between atoms: _325  and  _326
REMARK  138  A    between atoms: _325  and  _328
REMARK  139  A    between atoms: _331  and  _333
REMARK  140  A    between atoms: _333  and  _334
REMARK  141  A    between atoms: _333  and  _336
REMARK  142  A    between atoms: _336  and  _337
REMARK  143  A    between atoms: _342  and  _343
REMARK  144  A    between atoms: _345  and  _347
REMARK  145  A    between atoms: _347  and  _348
REMARK  146  A    between atoms: _347  and  _350
REMARK  147  A    between atoms: _350  and  _351
REMARK  148  A    between atoms: _351  and  _352
REMARK  149  A    between atoms: _352  and  _353
REMARK  150  A    between atoms: _362  and  _364
REMARK  151  A    between atoms: _364  and  _365
REMARK  152  A    between atoms: _364  and  _367
REMARK  153  A    between atoms: _367  and  _368
REMARK  154  A    between atoms: _373  and  _374
REMARK  155  A    between atoms: _376  and  _378
REMARK  156  A    between atoms: _378  and  _379
REMARK  157  A    between atoms: _378  and  _381
REMARK  158  A    between atoms: _381  and  _382
REMARK  159  A    between atoms: _385  and  _387
REMARK  160  A    between atoms: _387  and  _388
REMARK  161  A    between atoms: _387  and  _390
REMARK  162  A    between atoms: _390  and  _391
REMARK  163  A    between atoms: _393  and  _395
REMARK  164  A    between atoms: _395  and  _396
REMARK  165  A    between atoms: _395  and  _398
REMARK  166  A    between atoms: _398  and  _399
REMARK  167  A    between atoms: _405  and  _407
REMARK  168  A    between atoms: _407  and  _408
REMARK  169  A    between atoms: _407  and  _410
REMARK  170  A    between atoms: _410  and  _411
REMARK  171  A    between atoms: _411  and  _412
REMARK                            x       y       z     vdW  Elec       q    Type
REMARK                         _______ _______ _______ _____ _____    ______ ____
ROOT
ATOM      1  CA  ASP A   1      25.486  10.185 -50.965  0.00  0.00    +0.144 C 
ENDROOT
BRANCH   1   2
ATOM      2  N   ASP A   1      24.574   9.045 -51.108  0.00  0.00    -0.239 NA
ATOM      3  H   ASP A   1      24.968   8.115 -51.356  0.00  0.00    +0.142 HD
ENDBRANCH   1   2
BRANCH   1   4
ATOM      4  C   ASP A   1      25.286  11.244 -52.048  0.00  0.00    +0.225 C 
ATOM      5  O   ASP A   1      25.541  12.430 -51.819  0.00  0.00    -0.287 OA
ENDBRANCH   1   4
BRANCH   1   6
ATOM      6  CB  ASP A   1      26.942   9.710 -50.945  0.00  0.00    +0.139 C 
BRANCH   6   7
ATOM      7  CG  ASP A   1      27.381   9.227 -49.567  0.00  0.00    +0.367 C 
ATOM      8  OD2 ASP A   1      26.501   8.869 -48.744  0.00  0.00    -0.246 OA
ATOM      9  OD1 ASP A   1      28.611   9.207 -49.305  0.00  0.00    -0.246 OA
ENDBRANCH   6   7
ENDBRANCH   1   6
TORSDOF 4
REMARK  Name = ../refined-set-2016/2x8z/2x8z_pocket.pdb
REMARK  171 active torsions:
REMARK  status: ('A' for Active; 'I' for Inactive)
REMARK    1  A    between atoms: _1  and  _3
REMARK    2  A    between atoms: _3  and  _4
REMARK    3  A    between atoms: _3  and  _6
REMARK    4  A    between atoms: _6  and  _7
REMARK    5  A    between atoms: _7  and  _8
REMARK    6  A    between atoms: _11  and  _13
REMARK    7  A    between atoms: _13  and  _14
REMARK    8  A    between atoms: _13  and  _16
REMARK    9  A    between atoms: _16  and  _17
REMARK   10  A    between atoms: _22  and  _24
REMARK   11  A    between atoms: _24  and  _25
REMARK   12  A    between atoms: _24  and  _27
REMARK   13  A    between atoms: _27  and  _28
REMARK   14  A    between atoms: _38  and  _40
REMARK   15  A    between atoms: _40  and  _41
REMARK   16  A    between atoms: _40  and  _43
REMARK   17  A    between atoms: _43  and  _44
REMARK   18  A    between atoms: _44  and  _45
REMARK   19  A    between atoms: _50  and  _52
REMARK   20  A    between atoms: _52  and  _53
REMARK   21  A    between atoms: _52  and  _55
REMARK   22  A    between atoms: _55  and  _56
REMARK   23  A    between atoms: _56  and  _57
REMARK   24  A    between atoms: _62  and  _64
REMARK   25  A    between atoms: _64  and  _65
REMARK   26  A    between atoms: _64  and  _67
REMARK   27  A    between atoms: _69  and  _71
REMARK   28  A    between atoms: _71  and  _72
REMARK   29  A    between atoms: _71  and  _74
REMARK   30  A    between atoms: _74  and  _75
REMARK   31  A    between atoms: _80  and  _82
REMARK   32  A    between atoms: _82  and  _83
REMARK   33  A    between atoms: _86  and  _88
REMARK   34  A    between atoms: _88  and  _89
REMARK   35  A    between atoms: _88  and  _91
REMARK   36  A    between atoms: _91  and  _92
REMARK   37  A    between atoms: _94  and  _96
REMARK   38  A    between atoms: _96  and  _97
REMARK   39  A    between atoms: _100  and  _102
REMARK   40  A    between atoms: _102  and  _103
REMARK   41  A    between atoms: _102  and  _105
REMARK   42  A    between atoms: _105  and  _106
REMARK   43  A    between atoms: _106  and  _107
REMARK   44  A    between atoms: _112  and  _114
REMARK   45  A    between atoms: _114  and  _115
REMARK   46  A    between atoms: _114  and  _117
REMARK   47  A    between atoms: _117  and  _118
REMARK   48  A    between atoms: _118  and  _119
REMARK   49  A    between atoms: _124  and  _126
REMARK   50  A    between atoms: _126  and  _127
REMARK   51  A    between atoms: _126  and  _129
REMARK   52  A    between atoms: _129  and  _130
REMARK   53  A    between atoms: _136  and  _138
REMARK   54  A    between atoms: _138  and  _139
REMARK   55  A    between atoms: _138  and  _141
REMARK   56  A    between atoms: _141  and  _142
REMARK   57  A    between atoms: _145  and  _147
REMARK   58  A    between atoms: _147  and  _148
REMARK   59  A    between atoms: _147  and  _150
REMARK   60  A    between atoms: _153  and  _155
REMARK   61  A    between atoms: _155  and  _156
REMARK   62  A    between atoms: _155  and  _158
REMARK   63  A    between atoms: _158  and  _159
REMARK   64  A    between atoms: _163  and  ZN_417
REMARK   65  A    between atoms: _164  and  _166
REMARK   66  A    between atoms: _166  and  _167
REMARK   67  A    between atoms: _166  and  _169
REMARK   68  A    between atoms: _169  and  _170
REMARK   69  A    between atoms: _170  and  _171
REMARK   70  A    between atoms: _174  and  _176
REMARK   71  A    between atoms: _176  and  _177
REMARK   72  A    between atoms: _176  and  _179
REMARK   73  A    between atoms: _179  and  _180
REMARK   74  A    between atoms: _184  and  ZN_417
REMARK   75  A    between atoms: _185  and  _187
REMARK   76  A    between atoms: _187  and  _188
REMARK   77  A    between atoms: _187  and  _190
REMARK   78  A    between atoms: _190  and  _191
REMARK   79  A    between atoms: _196  and  _198
REMARK   80  A    between atoms: _198  and  _199
REMARK   81  A    between atoms: _198  and  _201
REMARK   82  A    between atoms: _201  and  _202
REMARK   83  A    between atoms: _202  and  _203
REMARK   84  A    between atoms: _203  and  _204
REMARK   85  A    between atoms: _204  and  ZN_417
REMARK   86  A    between atoms: _206  and  _208
REMARK   87  A    between atoms: _208  and  _209
REMARK   88  A    between atoms: _208  and  _211
REMARK   89  A    between atoms: _211  and  _212
REMARK   90  A    between atoms: _215  and  _217
REMARK   91  A    between atoms: _217  and  _218
REMARK   92  A    between atoms: _217  and  _220
REMARK   93  A    between atoms: _220  and  _221
REMARK   94  A    between atoms: _224  and  _226
REMARK   95  A    between atoms: _226  and  _227
REMARK   96  A    between atoms: _226  and  _229
REMARK   97  A    between atoms: _229  and  _230
REMARK   98  A    between atoms: _230  and  _231
REMARK   99  A    between atoms: _231  and  _232
REMARK  100  A    between atoms: _232  and  _233
REMARK  101  A    between atoms: _237  and  _239
REMARK  102  A    between atoms: _239  and  _240
REMARK  103  A    between atoms: _239  and  _242
REMARK  104  A    between atoms: _242  and  _243
REMARK  105  A    between atoms: _249  and  _251
REMARK  106  A    between atoms: _251  and  _252
REMARK  107  A    between atoms: _251  and  _254
REMARK  108  A    between atoms: _254  and  _255
REMARK  109  A    between atoms: _261  and  _263
REMARK  110  A    between atoms: _263  and  _264
REMARK  111  A    between atoms: _267  and  _269
REMARK  112  A    between atoms: _269  and  _270
REMARK  113  A    between atoms: _269  and  _272
REMARK  114  A    between atoms: _272  and  _273
REMARK  115  A    between atoms: _273  and  _274
REMARK  116  A    between atoms: _276  and  _278
REMARK  117  A    between atoms: _278  and  _279
REMARK  118  A    between atoms: _278  and  _281
REMARK  119  A    between atoms: _281  and  _282
REMARK  120  A    between atoms: _282  and  _283
REMARK  121  A    between atoms: _283  and  _284
REMARK  122  A    between atoms: _284  and  _285
REMARK  123  A    between atoms: _289  and  _291
REMARK  124  A    between atoms: _291  and  _292
REMARK  125  A    between atoms: _291  and  _294
REMARK  126  A    between atoms: _294  and  _295
REMARK  127  A    between atoms: _300  and  _301
REMARK  128  A    between atoms: _303  and  _305
REMARK  129  A    between atoms: _305  and  _306
REMARK  130  A    between atoms: _305  and  _308
REMARK  131  A    between atoms: _308  and  _309
REMARK  132  A    between atoms: _314  and  _316
REMARK  133  A    between atoms: _316  and  _317
REMARK  134  A    between atoms: _316  and  _319
REMARK  135  A    between atoms: _319  and  _320
REMARK  136  A    between atoms: _323  and  _325
REMARK  137  A    between atoms: _325  and  _326
REMARK  138  A    between atoms: _325  and  _328
REMARK  139  A    between atoms: _331  and  _333
REMARK  140  A    between atoms: _333  and  _334
REMARK  141  A    between atoms: _333  and  _336
REMARK  142  A    between atoms: _336  and  _337
REMARK  143  A    between atoms: _342  and  _343
REMARK  144  A    between atoms: _345  and  _347
REMARK  145  A    between atoms: _347  and  _348
REMARK  146  A    between atoms: _347  and  _350
REMARK  147  A    between atoms: _350  and  _351
REMARK  148  A    between atoms: _351  and  _352
REMARK  149  A    between atoms: _352  and  _353
REMARK  150  A    between atoms: _362  and  _364
REMARK  151  A    between atoms: _364  and  _365
REMARK  152  A    between atoms: _364  and  _367
REMARK  153  A    between atoms: _367  and  _368
REMARK  154  A    between atoms: _373  and  _374
REMARK  155  A    between atoms: _376  and  _378
REMARK  156  A    between atoms: _378  and  _379
REMARK  157  A    between atoms: _378  and  _381
REMARK  158  A    between atoms: _381  and  _382
REMARK  159  A    between atoms: _385  and  _387
REMARK  160  A    between atoms: _387  and  _388
REMARK  161  A    between atoms: _387  and  _390
REMARK  162  A    between atoms: _390  and  _391
REMARK  163  A    between atoms: _393  and  _395
REMARK  164  A    between atoms: _395  and  _396
REMARK  165  A    between atoms: _395  and  _398
REMARK  166  A    between atoms: _398  and  _399
REMARK  167  A    between atoms: _405  and  _407
REMARK  168  A    between atoms: _407  and  _408
REMARK  169  A    between atoms: _407  and  _410
REMARK  170  A    between atoms: _410  and  _411
REMARK  171  A    between atoms: _411  and  _412
REMARK                            x       y       z     vdW  Elec       q    Type
REMARK                         _______ _______ _______ _____ _____    ______ ____
ROOT
ATOM      1  C   ASP A   1      34.288  14.657 -46.291  0.00  0.00    +0.239 C 
ATOM      2  O   ASP A   1      34.533  13.459 -46.161  0.00  0.00    -0.274 OA
ATOM      3  N   LYS A   2      34.451  15.295 -47.445  0.00  0.00    -0.298 N 
ATOM      4  H   LYS A   2      34.427  16.335 -47.461  0.00  0.00    +0.150 HD
ENDROOT
BRANCH   1   5
ATOM      5  CA  ASP A   1      33.775  15.476 -45.103  0.00  0.00    +0.156 C 
BRANCH   5   6
ATOM      6  N   ASP A   1      34.423  16.783 -45.014  0.00  0.00    -0.238 NA
ATOM      7  H   ASP A   1      34.029  17.568 -45.571  0.00  0.00    +0.142 HD
ENDBRANCH   5   6
BRANCH   5   8
ATOM      8  CB  ASP A   1      32.250  15.636 -45.229  0.00  0.00    +0.140 C 
BRANCH   8   9
ATOM      9  CG  ASP A   1      31.543  15.747 -43.882  0.00  0.00    +0.367 C 
ATOM     10  OD2 ASP A   1      32.215  15.699 -42.827  0.00  0.00    -0.246 OA
ATOM     11  OD1 ASP A   1      30.292  15.877 -43.882  0.00  0.00    -0.246 OA
ENDBRANCH   8   9
ENDBRANCH   5   8
ENDBRANCH   1   5
BRANCH   3  12
ATOM     12  CA  LYS A   2      34.664  14.560 -48.698  0.00  0.00    +0.137 C 
BRANCH  12  13
ATOM     13  C   LYS A   2      36.121  14.348 -49.118  0.00  0.00    +0.227 C 
ATOM     14  O   LYS A   2      36.465  13.280 -49.631  0.00  0.00    -0.286 OA
ENDBRANCH  12  13
BRANCH  12  15
ATOM     15  CB  LYS A   2      33.872  15.200 -49.847  0.00  0.00    +0.028 C 
BRANCH  15  16
ATOM     16  CG  LYS A   2      32.359  15.259 -49.628  0.00  0.00    -0.000 C 
BRANCH  16  17
ATOM     17  CD  LYS A   2      31.753  13.873 -49.466  0.00  0.00    -0.024 C 
BRANCH  17  18
ATOM     18  CE  LYS A   2      30.249  13.934 -49.230  0.00  0.00    -0.086 C 
BRANCH  18  19
ATOM     19  NZ  LYS A   2      29.689  12.559 -49.053  0.00  0.00    +0.380 N 
ATOM     20  HZ1 LYS A   2      30.141  12.105 -48.234  0.00  0.00    -0.089 HD
ATOM     21  HZ2 LYS A   2      28.663  12.622 -48.893  0.00  0.00    -0.089 HD
ATOM     22  HZ3 LYS A   2      29.874  11.998 -49.909  0.00  0.00    -0.089 HD
ENDBRANCH  18  19
ENDBRANCH  17  18
ENDBRANCH  16  17
ENDBRANCH  15  16
ENDBRANCH  12  15
ENDBRANCH   3  12
TORSDOF 11
REMARK  Name = ../refined-set-2016/2x8z/2x8z_pocket.pdb
REMARK  171 active torsions:
REMARK  status: ('A' for Active; 'I' for Inactive)
REMARK    1  A    between atoms: _1  and  _3
REMARK    2  A    between atoms: _3  and  _4
REMARK    3  A    between atoms: _3  and  _6
REMARK    4  A    between atoms: _6  and  _7
REMARK    5  A    between atoms: _7  and  _8
REMARK    6  A    between atoms: _11  and  _13
REMARK    7  A    between atoms: _13  and  _14
REMARK    8  A    between atoms: _13  and  _16
REMARK    9  A    between atoms: _16  and  _17
REMARK   10  A    between atoms: _22  and  _24
REMARK   11  A    between atoms: _24  and  _25
REMARK   12  A    between atoms: _24  and  _27
REMARK   13  A    between atoms: _27  and  _28
REMARK   14  A    between atoms: _38  and  _40
REMARK   15  A    between atoms: _40  and  _41
REMARK   16  A    between atoms: _40  and  _43
REMARK   17  A    between atoms: _43  and  _44
REMARK   18  A    between atoms: _44  and  _45
REMARK   19  A    between atoms: _50  and  _52
REMARK   20  A    between atoms: _52  and  _53
REMARK   21  A    between atoms: _52  and  _55
REMARK   22  A    between atoms: _55  and  _56
REMARK   23  A    between atoms: _56  and  _57
REMARK   24  A    between atoms: _62  and  _64
REMARK   25  A    between atoms: _64  and  _65
REMARK   26  A    between atoms: _64  and  _67
REMARK   27  A    between atoms: _69  and  _71
REMARK   28  A    between atoms: _71  and  _72
REMARK   29  A    between atoms: _71  and  _74
REMARK   30  A    between atoms: _74  and  _75
REMARK   31  A    between atoms: _80  and  _82
REMARK   32  A    between atoms: _82  and  _83
REMARK   33  A    between atoms: _86  and  _88
REMARK   34  A    between atoms: _88  and  _89
REMARK   35  A    between atoms: _88  and  _91
REMARK   36  A    between atoms: _91  and  _92
REMARK   37  A    between atoms: _94  and  _96
REMARK   38  A    between atoms: _96  and  _97
REMARK   39  A    between atoms: _100  and  _102
REMARK   40  A    between atoms: _102  and  _103
REMARK   41  A    between atoms: _102  and  _105
REMARK   42  A    between atoms: _105  and  _106
REMARK   43  A    between atoms: _106  and  _107
REMARK   44  A    between atoms: _112  and  _114
REMARK   45  A    between atoms: _114  and  _115
REMARK   46  A    between atoms: _114  and  _117
REMARK   47  A    between atoms: _117  and  _118
REMARK   48  A    between atoms: _118  and  _119
REMARK   49  A    between atoms: _124  and  _126
REMARK   50  A    between atoms: _126  and  _127
REMARK   51  A    between atoms: _126  and  _129
REMARK   52  A    between atoms: _129  and  _130
REMARK   53  A    between atoms: _136  and  _138
REMARK   54  A    between atoms: _138  and  _139
REMARK   55  A    between atoms: _138  and  _141
REMARK   56  A    between atoms: _141  and  _142
REMARK   57  A    between atoms: _145  and  _147
REMARK   58  A    between atoms: _147  and  _148
REMARK   59  A    between atoms: _147  and  _150
REMARK   60  A    between atoms: _153  and  _155
REMARK   61  A    between atoms: _155  and  _156
REMARK   62  A    between atoms: _155  and  _158
REMARK   63  A    between atoms: _158  and  _159
REMARK   64  A    between atoms: _163  and  ZN_417
REMARK   65  A    between atoms: _164  and  _166
REMARK   66  A    between atoms: _166  and  _167
REMARK   67  A    between atoms: _166  and  _169
REMARK   68  A    between atoms: _169  and  _170
REMARK   69  A    between atoms: _170  and  _171
REMARK   70  A    between atoms: _174  and  _176
REMARK   71  A    between atoms: _176  and  _177
REMARK   72  A    between atoms: _176  and  _179
REMARK   73  A    between atoms: _179  and  _180
REMARK   74  A    between atoms: _184  and  ZN_417
REMARK   75  A    between atoms: _185  and  _187
REMARK   76  A    between atoms: _187  and  _188
REMARK   77  A    between atoms: _187  and  _190
REMARK   78  A    between atoms: _190  and  _191
REMARK   79  A    between atoms: _196  and  _198
REMARK   80  A    between atoms: _198  and  _199
REMARK   81  A    between atoms: _198  and  _201
REMARK   82  A    between atoms: _201  and  _202
REMARK   83  A    between atoms: _202  and  _203
REMARK   84  A    between atoms: _203  and  _204
REMARK   85  A    between atoms: _204  and  ZN_417
REMARK   86  A    between atoms: _206  and  _208
REMARK   87  A    between atoms: _208  and  _209
REMARK   88  A    between atoms: _208  and  _211
REMARK   89  A    between atoms: _211  and  _212
REMARK   90  A    between atoms: _215  and  _217
REMARK   91  A    between atoms: _217  and  _218
REMARK   92  A    between atoms: _217  and  _220
REMARK   93  A    between atoms: _220  and  _221
REMARK   94  A    between atoms: _224  and  _226
REMARK   95  A    between atoms: _226  and  _227
REMARK   96  A    between atoms: _226  and  _229
REMARK   97  A    between atoms: _229  and  _230
REMARK   98  A    between atoms: _230  and  _231
REMARK   99  A    between atoms: _231  and  _232
REMARK  100  A    between atoms: _232  and  _233
REMARK  101  A    between atoms: _237  and  _239
REMARK  102  A    between atoms: _239  and  _240
REMARK  103  A    between atoms: _239  and  _242
REMARK  104  A    between atoms: _242  and  _243
REMARK  105  A    between atoms: _249  and  _251
REMARK  106  A    between atoms: _251  and  _252
REMARK  107  A    between atoms: _251  and  _254
REMARK  108  A    between atoms: _254  and  _255
REMARK  109  A    between atoms: _261  and  _263
REMARK  110  A    between atoms: _263  and  _264
REMARK  111  A    between atoms: _267  and  _269
REMARK  112  A    between atoms: _269  and  _270
REMARK  113  A    between atoms: _269  and  _272
REMARK  114  A    between atoms: _272  and  _273
REMARK  115  A    between atoms: _273  and  _274
REMARK  116  A    between atoms: _276  and  _278
REMARK  117  A    between atoms: _278  and  _279
REMARK  118  A    between atoms: _278  and  _281
REMARK  119  A    between atoms: _281  and  _282
REMARK  120  A    between atoms: _282  and  _283
REMARK  121  A    between atoms: _283  and  _284
REMARK  122  A    between atoms: _284  and  _285
REMARK  123  A    between atoms: _289  and  _291
REMARK  124  A    between atoms: _291  and  _292
REMARK  125  A    between atoms: _291  and  _294
REMARK  126  A    between atoms: _294  and  _295
REMARK  127  A    between atoms: _300  and  _301
REMARK  128  A    between atoms: _303  and  _305
REMARK  129  A    between atoms: _305  and  _306
REMARK  130  A    between atoms: _305  and  _308
REMARK  131  A    between atoms: _308  and  _309
REMARK  132  A    between atoms: _314  and  _316
REMARK  133  A    between atoms: _316  and  _317
REMARK  134  A    between atoms: _316  and  _319
REMARK  135  A    between atoms: _319  and  _320
REMARK  136  A    between atoms: _323  and  _325
REMARK  137  A    between atoms: _325  and  _326
REMARK  138  A    between atoms: _325  and  _328
REMARK  139  A    between atoms: _331  and  _333
REMARK  140  A    between atoms: _333  and  _334
REMARK  141  A    between atoms: _333  and  _336
REMARK  142  A    between atoms: _336  and  _337
REMARK  143  A    between atoms: _342  and  _343
REMARK  144  A    between atoms: _345  and  _347
REMARK  145  A    between atoms: _347  and  _348
REMARK  146  A    between atoms: _347  and  _350
REMARK  147  A    between atoms: _350  and  _351
REMARK  148  A    between atoms: _351  and  _352
REMARK  149  A    between atoms: _352  and  _353
REMARK  150  A    between atoms: _362  and  _364
REMARK  151  A    between atoms: _364  and  _365
REMARK  152  A    between atoms: _364  and  _367
REMARK  153  A    between atoms: _367  and  _368
REMARK  154  A    between atoms: _373  and  _374
REMARK  155  A    between atoms: _376  and  _378
REMARK  156  A    between atoms: _378  and  _379
REMARK  157  A    between atoms: _378  and  _381
REMARK  158  A    between atoms: _381  and  _382
REMARK  159  A    between atoms: _385  and  _387
REMARK  160  A    between atoms: _387  and  _388
REMARK  161  A    between atoms: _387  and  _390
REMARK  162  A    between atoms: _390  and  _391
REMARK  163  A    between atoms: _393  and  _395
REMARK  164  A    between atoms: _395  and  _396
REMARK  165  A    between atoms: _395  and  _398
REMARK  166  A    between atoms: _398  and  _399
REMARK  167  A    between atoms: _405  and  _407
REMARK  168  A    between atoms: _407  and  _408
REMARK  169  A    between atoms: _407  and  _410
REMARK  170  A    between atoms: _410  and  _411
REMARK  171  A    between atoms: _411  and  _412
REMARK                            x       y       z     vdW  Elec       q    Type
REMARK                         _______ _______ _______ _____ _____    ______ ____
ROOT
ATOM      1  CB  PHE A   1      36.439  10.834 -46.282  0.00  0.00    +0.051 C 
ENDROOT
BRANCH   1   2
ATOM      2  CG  PHE A   1      35.941   9.420 -46.157  0.00  0.00    -0.020 A 
ATOM      3  CD2 PHE A   1      35.699   8.863 -44.910  0.00  0.00    -0.004 A 
ATOM      4  CE2 PHE A   1      35.223   7.554 -44.798  0.00  0.00    -0.000 A 
ATOM      5  CZ  PHE A   1      34.980   6.803 -45.945  0.00  0.00    -0.000 A 
ATOM      6  CE1 PHE A   1      35.209   7.356 -47.194  0.00  0.00    -0.000 A 
ATOM      7  CD1 PHE A   1      35.688   8.656 -47.294  0.00  0.00    -0.004 A 
ENDBRANCH   1   2
BRANCH   1   8
ATOM      8  CA  PHE A   1      37.927  11.010 -45.970  0.00  0.00    +0.137 C 
BRANCH   8   9
ATOM      9  N   PHE A   1      38.259  12.431 -46.043  0.00  0.00    -0.239 NA
ATOM     10  H   PHE A   1      37.538  13.091 -46.400  0.00  0.00    +0.142 HD
ENDBRANCH   8   9
BRANCH   8  11
ATOM     11  C   PHE A   1      38.757  10.122 -46.896  0.00  0.00    +0.224 C 
ATOM     12  O   PHE A   1      38.969   8.946 -46.603  0.00  0.00    -0.287 OA
ENDBRANCH   8  11
ENDBRANCH   1   8
TORSDOF 4
REMARK  Name = ../refined-set-2016/2x8z/2x8z_pocket.pdb
REMARK  171 active torsions:
REMARK  status: ('A' for Active; 'I' for Inactive)
REMARK    1  A    between atoms: _1  and  _3
REMARK    2  A    between atoms: _3  and  _4
REMARK    3  A    between atoms: _3  and  _6
REMARK    4  A    between atoms: _6  and  _7
REMARK    5  A    between atoms: _7  and  _8
REMARK    6  A    between atoms: _11  and  _13
REMARK    7  A    between atoms: _13  and  _14
REMARK    8  A    between atoms: _13  and  _16
REMARK    9  A    between atoms: _16  and  _17
REMARK   10  A    between atoms: _22  and  _24
REMARK   11  A    between atoms: _24  and  _25
REMARK   12  A    between atoms: _24  and  _27
REMARK   13  A    between atoms: _27  and  _28
REMARK   14  A    between atoms: _38  and  _40
REMARK   15  A    between atoms: _40  and  _41
REMARK   16  A    between atoms: _40  and  _43
REMARK   17  A    between atoms: _43  and  _44
REMARK   18  A    between atoms: _44  and  _45
REMARK   19  A    between atoms: _50  and  _52
REMARK   20  A    between atoms: _52  and  _53
REMARK   21  A    between atoms: _52  and  _55
REMARK   22  A    between atoms: _55  and  _56
REMARK   23  A    between atoms: _56  and  _57
REMARK   24  A    between atoms: _62  and  _64
REMARK   25  A    between atoms: _64  and  _65
REMARK   26  A    between atoms: _64  and  _67
REMARK   27  A    between atoms: _69  and  _71
REMARK   28  A    between atoms: _71  and  _72
REMARK   29  A    between atoms: _71  and  _74
REMARK   30  A    between atoms: _74  and  _75
REMARK   31  A    between atoms: _80  and  _82
REMARK   32  A    between atoms: _82  and  _83
REMARK   33  A    between atoms: _86  and  _88
REMARK   34  A    between atoms: _88  and  _89
REMARK   35  A    between atoms: _88  and  _91
REMARK   36  A    between atoms: _91  and  _92
REMARK   37  A    between atoms: _94  and  _96
REMARK   38  A    between atoms: _96  and  _97
REMARK   39  A    between atoms: _100  and  _102
REMARK   40  A    between atoms: _102  and  _103
REMARK   41  A    between atoms: _102  and  _105
REMARK   42  A    between atoms: _105  and  _106
REMARK   43  A    between atoms: _106  and  _107
REMARK   44  A    between atoms: _112  and  _114
REMARK   45  A    between atoms: _114  and  _115
REMARK   46  A    between atoms: _114  and  _117
REMARK   47  A    between atoms: _117  and  _118
REMARK   48  A    between atoms: _118  and  _119
REMARK   49  A    between atoms: _124  and  _126
REMARK   50  A    between atoms: _126  and  _127
REMARK   51  A    between atoms: _126  and  _129
REMARK   52  A    between atoms: _129  and  _130
REMARK   53  A    between atoms: _136  and  _138
REMARK   54  A    between atoms: _138  and  _139
REMARK   55  A    between atoms: _138  and  _141
REMARK   56  A    between atoms: _141  and  _142
REMARK   57  A    between atoms: _145  and  _147
REMARK   58  A    between atoms: _147  and  _148
REMARK   59  A    between atoms: _147  and  _150
REMARK   60  A    between atoms: _153  and  _155
REMARK   61  A    between atoms: _155  and  _156
REMARK   62  A    between atoms: _155  and  _158
REMARK   63  A    between atoms: _158  and  _159
REMARK   64  A    between atoms: _163  and  ZN_417
REMARK   65  A    between atoms: _164  and  _166
REMARK   66  A    between atoms: _166  and  _167
REMARK   67  A    between atoms: _166  and  _169
REMARK   68  A    between atoms: _169  and  _170
REMARK   69  A    between atoms: _170  and  _171
REMARK   70  A    between atoms: _174  and  _176
REMARK   71  A    between atoms: _176  and  _177
REMARK   72  A    between atoms: _176  and  _179
REMARK   73  A    between atoms: _179  and  _180
REMARK   74  A    between atoms: _184  and  ZN_417
REMARK   75  A    between atoms: _185  and  _187
REMARK   76  A    between atoms: _187  and  _188
REMARK   77  A    between atoms: _187  and  _190
REMARK   78  A    between atoms: _190  and  _191
REMARK   79  A    between atoms: _196  and  _198
REMARK   80  A    between atoms: _198  and  _199
REMARK   81  A    between atoms: _198  and  _201
REMARK   82  A    between atoms: _201  and  _202
REMARK   83  A    between atoms: _202  and  _203
REMARK   84  A    between atoms: _203  and  _204
REMARK   85  A    between atoms: _204  and  ZN_417
REMARK   86  A    between atoms: _206  and  _208
REMARK   87  A    between atoms: _208  and  _209
REMARK   88  A    between atoms: _208  and  _211
REMARK   89  A    between atoms: _211  and  _212
REMARK   90  A    between atoms: _215  and  _217
REMARK   91  A    between atoms: _217  and  _218
REMARK   92  A    between atoms: _217  and  _220
REMARK   93  A    between atoms: _220  and  _221
REMARK   94  A    between atoms: _224  and  _226
REMARK   95  A    between atoms: _226  and  _227
REMARK   96  A    between atoms: _226  and  _229
REMARK   97  A    between atoms: _229  and  _230
REMARK   98  A    between atoms: _230  and  _231
REMARK   99  A    between atoms: _231  and  _232
REMARK  100  A    between atoms: _232  and  _233
REMARK  101  A    between atoms: _237  and  _239
REMARK  102  A    between atoms: _239  and  _240
REMARK  103  A    between atoms: _239  and  _242
REMARK  104  A    between atoms: _242  and  _243
REMARK  105  A    between atoms: _249  and  _251
REMARK  106  A    between atoms: _251  and  _252
REMARK  107  A    between atoms: _251  and  _254
REMARK  108  A    between atoms: _254  and  _255
REMARK  109  A    between atoms: _261  and  _263
REMARK  110  A    between atoms: _263  and  _264
REMARK  111  A    between atoms: _267  and  _269
REMARK  112  A    between atoms: _269  and  _270
REMARK  113  A    between atoms: _269  and  _272
REMARK  114  A    between atoms: _272  and  _273
REMARK  115  A    between atoms: _273  and  _274
REMARK  116  A    between atoms: _276  and  _278
REMARK  117  A    between atoms: _278  and  _279
REMARK  118  A    between atoms: _278  and  _281
REMARK  119  A    between atoms: _281  and  _282
REMARK  120  A    between atoms: _282  and  _283
REMARK  121  A    between atoms: _283  and  _284
REMARK  122  A    between atoms: _284  and  _285
REMARK  123  A    between atoms: _289  and  _291
REMARK  124  A    between atoms: _291  and  _292
REMARK  125  A    between atoms: _291  and  _294
REMARK  126  A    between atoms: _294  and  _295
REMARK  127  A    between atoms: _300  and  _301
REMARK  128  A    between atoms: _303  and  _305
REMARK  129  A    between atoms: _305  and  _306
REMARK  130  A    between atoms: _305  and  _308
REMARK  131  A    between atoms: _308  and  _309
REMARK  132  A    between atoms: _314  and  _316
REMARK  133  A    between atoms: _316  and  _317
REMARK  134  A    between atoms: _316  and  _319
REMARK  135  A    between atoms: _319  and  _320
REMARK  136  A    between atoms: _323  and  _325
REMARK  137  A    between atoms: _325  and  _326
REMARK  138  A    between atoms: _325  and  _328
REMARK  139  A    between atoms: _331  and  _333
REMARK  140  A    between atoms: _333  and  _334
REMARK  141  A    between atoms: _333  and  _336
REMARK  142  A    between atoms: _336  and  _337
REMARK  143  A    between atoms: _342  and  _343
REMARK  144  A    between atoms: _345  and  _347
REMARK  145  A    between atoms: _347  and  _348
REMARK  146  A    between atoms: _347  and  _350
REMARK  147  A    between atoms: _350  and  _351
REMARK  148  A    between atoms: _351  and  _352
REMARK  149  A    between atoms: _352  and  _353
REMARK  150  A    between atoms: _362  and  _364
REMARK  151  A    between atoms: _364  and  _365
REMARK  152  A    between atoms: _364  and  _367
REMARK  153  A    between atoms: _367  and  _368
REMARK  154  A    between atoms: _373  and  _374
REMARK  155  A    between atoms: _376  and  _378
REMARK  156  A    between atoms: _378  and  _379
REMARK  157  A    between atoms: _378  and  _381
REMARK  158  A    between atoms: _381  and  _382
REMARK  159  A    between atoms: _385  and  _387
REMARK  160  A    between atoms: _387  and  _388
REMARK  161  A    between atoms: _387  and  _390
REMARK  162  A    between atoms: _390  and  _391
REMARK  163  A    between atoms: _393  and  _395
REMARK  164  A    between atoms: _395  and  _396
REMARK  165  A    between atoms: _395  and  _398
REMARK  166  A    between atoms: _398  and  _399
REMARK  167  A    between atoms: _405  and  _407
REMARK  168  A    between atoms: _407  and  _408
REMARK  169  A    between atoms: _407  and  _410
REMARK  170  A    between atoms: _410  and  _411
REMARK  171  A    between atoms: _411  and  _412
REMARK                            x       y       z     vdW  Elec       q    Type
REMARK                         _______ _______ _______ _____ _____    ______ ____
ROOT
ATOM      1  CA  PHE A   1      41.463   7.606 -44.454  0.00  0.00    +0.149 C 
ENDROOT
BRANCH   1   2
ATOM      2  C   PHE A   1      40.962   6.286 -45.040  0.00  0.00    +0.239 C 
ATOM      3  O   PHE A   1      41.412   5.209 -44.642  0.00  0.00    -0.274 OA
ATOM      4  N   ALA A   2      40.024   6.380 -45.979  0.00  0.00    -0.298 N 
ATOM      5  H   ALA A   2      39.710   7.325 -46.280  0.00  0.00    +0.150 HD
BRANCH   4   6
ATOM      6  CA  ALA A   2      39.415   5.200 -46.606  0.00  0.00    +0.137 C 
ATOM      7  CB  ALA A   2      38.326   5.616 -47.581  0.00  0.00    +0.030 C 
BRANCH   6   8
ATOM      8  C   ALA A   2      40.439   4.310 -47.303  0.00  0.00    +0.227 C 
ATOM      9  O   ALA A   2      40.350   3.083 -47.219  0.00  0.00    -0.286 OA
ENDBRANCH   6   8
ENDBRANCH   4   6
ENDBRANCH   1   2
BRANCH   1  10
ATOM     10  N   PHE A   1      41.922   8.514 -45.505  0.00  0.00    -0.238 NA
ATOM     11  H   PHE A   1      41.502   9.462 -45.587  0.00  0.00    +0.142 HD
ENDBRANCH   1  10
BRANCH   1  12
ATOM     12  CB  PHE A   1      40.358   8.233 -43.603  0.00  0.00    +0.053 C 
BRANCH  12  13
ATOM     13  CG  PHE A   1      39.698   7.251 -42.681  0.00  0.00    -0.020 A 
ATOM     14  CD2 PHE A   1      40.271   6.945 -41.447  0.00  0.00    -0.004 A 
ATOM     15  CE2 PHE A   1      39.673   6.019 -40.596  0.00  0.00    -0.000 A 
ATOM     16  CZ  PHE A   1      38.488   5.385 -40.978  0.00  0.00    -0.000 A 
ATOM     17  CE1 PHE A   1      37.913   5.676 -42.207  0.00  0.00    -0.000 A 
ATOM     18  CD1 PHE A   1      38.523   6.600 -43.056  0.00  0.00    -0.004 A 
ENDBRANCH  12  13
ENDBRANCH   1  12
TORSDOF 6
REMARK  Name = ../refined-set-2016/2x8z/2x8z_pocket.pdb
REMARK  171 active torsions:
REMARK  status: ('A' for Active; 'I' for Inactive)
REMARK    1  A    between atoms: _1  and  _3
REMARK    2  A    between atoms: _3  and  _4
REMARK    3  A    between atoms: _3  and  _6
REMARK    4  A    between atoms: _6  and  _7
REMARK    5  A    between atoms: _7  and  _8
REMARK    6  A    between atoms: _11  and  _13
REMARK    7  A    between atoms: _13  and  _14
REMARK    8  A    between atoms: _13  and  _16
REMARK    9  A    between atoms: _16  and  _17
REMARK   10  A    between atoms: _22  and  _24
REMARK   11  A    between atoms: _24  and  _25
REMARK   12  A    between atoms: _24  and  _27
REMARK   13  A    between atoms: _27  and  _28
REMARK   14  A    between atoms: _38  and  _40
REMARK   15  A    between atoms: _40  and  _41
REMARK   16  A    between atoms: _40  and  _43
REMARK   17  A    between atoms: _43  and  _44
REMARK   18  A    between atoms: _44  and  _45
REMARK   19  A    between atoms: _50  and  _52
REMARK   20  A    between atoms: _52  and  _53
REMARK   21  A    between atoms: _52  and  _55
REMARK   22  A    between atoms: _55  and  _56
REMARK   23  A    between atoms: _56  and  _57
REMARK   24  A    between atoms: _62  and  _64
REMARK   25  A    between atoms: _64  and  _65
REMARK   26  A    between atoms: _64  and  _67
REMARK   27  A    between atoms: _69  and  _71
REMARK   28  A    between atoms: _71  and  _72
REMARK   29  A    between atoms: _71  and  _74
REMARK   30  A    between atoms: _74  and  _75
REMARK   31  A    between atoms: _80  and  _82
REMARK   32  A    between atoms: _82  and  _83
REMARK   33  A    between atoms: _86  and  _88
REMARK   34  A    between atoms: _88  and  _89
REMARK   35  A    between atoms: _88  and  _91
REMARK   36  A    between atoms: _91  and  _92
REMARK   37  A    between atoms: _94  and  _96
REMARK   38  A    between atoms: _96  and  _97
REMARK   39  A    between atoms: _100  and  _102
REMARK   40  A    between atoms: _102  and  _103
REMARK   41  A    between atoms: _102  and  _105
REMARK   42  A    between atoms: _105  and  _106
REMARK   43  A    between atoms: _106  and  _107
REMARK   44  A    between atoms: _112  and  _114
REMARK   45  A    between atoms: _114  and  _115
REMARK   46  A    between atoms: _114  and  _117
REMARK   47  A    between atoms: _117  and  _118
REMARK   48  A    between atoms: _118  and  _119
REMARK   49  A    between atoms: _124  and  _126
REMARK   50  A    between atoms: _126  and  _127
REMARK   51  A    between atoms: _126  and  _129
REMARK   52  A    between atoms: _129  and  _130
REMARK   53  A    between atoms: _136  and  _138
REMARK   54  A    between atoms: _138  and  _139
REMARK   55  A    between atoms: _138  and  _141
REMARK   56  A    between atoms: _141  and  _142
REMARK   57  A    between atoms: _145  and  _147
REMARK   58  A    between atoms: _147  and  _148
REMARK   59  A    between atoms: _147  and  _150
REMARK   60  A    between atoms: _153  and  _155
REMARK   61  A    between atoms: _155  and  _156
REMARK   62  A    between atoms: _155  and  _158
REMARK   63  A    between atoms: _158  and  _159
REMARK   64  A    between atoms: _163  and  ZN_417
REMARK   65  A    between atoms: _164  and  _166
REMARK   66  A    between atoms: _166  and  _167
REMARK   67  A    between atoms: _166  and  _169
REMARK   68  A    between atoms: _169  and  _170
REMARK   69  A    between atoms: _170  and  _171
REMARK   70  A    between atoms: _174  and  _176
REMARK   71  A    between atoms: _176  and  _177
REMARK   72  A    between atoms: _176  and  _179
REMARK   73  A    between atoms: _179  and  _180
REMARK   74  A    between atoms: _184  and  ZN_417
REMARK   75  A    between atoms: _185  and  _187
REMARK   76  A    between atoms: _187  and  _188
REMARK   77  A    between atoms: _187  and  _190
REMARK   78  A    between atoms: _190  and  _191
REMARK   79  A    between atoms: _196  and  _198
REMARK   80  A    between atoms: _198  and  _199
REMARK   81  A    between atoms: _198  and  _201
REMARK   82  A    between atoms: _201  and  _202
REMARK   83  A    between atoms: _202  and  _203
REMARK   84  A    between atoms: _203  and  _204
REMARK   85  A    between atoms: _204  and  ZN_417
REMARK   86  A    between atoms: _206  and  _208
REMARK   87  A    between atoms: _208  and  _209
REMARK   88  A    between atoms: _208  and  _211
REMARK   89  A    between atoms: _211  and  _212
REMARK   90  A    between atoms: _215  and  _217
REMARK   91  A    between atoms: _217  and  _218
REMARK   92  A    between atoms: _217  and  _220
REMARK   93  A    between atoms: _220  and  _221
REMARK   94  A    between atoms: _224  and  _226
REMARK   95  A    between atoms: _226  and  _227
REMARK   96  A    between atoms: _226  and  _229
REMARK   97  A    between atoms: _229  and  _230
REMARK   98  A    between atoms: _230  and  _231
REMARK   99  A    between atoms: _231  and  _232
REMARK  100  A    between atoms: _232  and  _233
REMARK  101  A    between atoms: _237  and  _239
REMARK  102  A    between atoms: _239  and  _240
REMARK  103  A    between atoms: _239  and  _242
REMARK  104  A    between atoms: _242  and  _243
REMARK  105  A    between atoms: _249  and  _251
REMARK  106  A    between atoms: _251  and  _252
REMARK  107  A    between atoms: _251  and  _254
REMARK  108  A    between atoms: _254  and  _255
REMARK  109  A    between atoms: _261  and  _263
REMARK  110  A    between atoms: _263  and  _264
REMARK  111  A    between atoms: _267  and  _269
REMARK  112  A    between atoms: _269  and  _270
REMARK  113  A    between atoms: _269  and  _272
REMARK  114  A    between atoms: _272  and  _273
REMARK  115  A    between atoms: _273  and  _274
REMARK  116  A    between atoms: _276  and  _278
REMARK  117  A    between atoms: _278  and  _279
REMARK  118  A    between atoms: _278  and  _281
REMARK  119  A    between atoms: _281  and  _282
REMARK  120  A    between atoms: _282  and  _283
REMARK  121  A    between atoms: _283  and  _284
REMARK  122  A    between atoms: _284  and  _285
REMARK  123  A    between atoms: _289  and  _291
REMARK  124  A    between atoms: _291  and  _292
REMARK  125  A    between atoms: _291  and  _294
REMARK  126  A    between atoms: _294  and  _295
REMARK  127  A    between atoms: _300  and  _301
REMARK  128  A    between atoms: _303  and  _305
REMARK  129  A    between atoms: _305  and  _306
REMARK  130  A    between atoms: _305  and  _308
REMARK  131  A    between atoms: _308  and  _309
REMARK  132  A    between atoms: _314  and  _316
REMARK  133  A    between atoms: _316  and  _317
REMARK  134  A    between atoms: _316  and  _319
REMARK  135  A    between atoms: _319  and  _320
REMARK  136  A    between atoms: _323  and  _325
REMARK  137  A    between atoms: _325  and  _326
REMARK  138  A    between atoms: _325  and  _328
REMARK  139  A    between atoms: _331  and  _333
REMARK  140  A    between atoms: _333  and  _334
REMARK  141  A    between atoms: _333  and  _336
REMARK  142  A    between atoms: _336  and  _337
REMARK  143  A    between atoms: _342  and  _343
REMARK  144  A    between atoms: _345  and  _347
REMARK  145  A    between atoms: _347  and  _348
REMARK  146  A    between atoms: _347  and  _350
REMARK  147  A    between atoms: _350  and  _351
REMARK  148  A    between atoms: _351  and  _352
REMARK  149  A    between atoms: _352  and  _353
REMARK  150  A    between atoms: _362  and  _364
REMARK  151  A    between atoms: _364  and  _365
REMARK  152  A    between atoms: _364  and  _367
REMARK  153  A    between atoms: _367  and  _368
REMARK  154  A    between atoms: _373  and  _374
REMARK  155  A    between atoms: _376  and  _378
REMARK  156  A    between atoms: _378  and  _379
REMARK  157  A    between atoms: _378  and  _381
REMARK  158  A    between atoms: _381  and  _382
REMARK  159  A    between atoms: _385  and  _387
REMARK  160  A    between atoms: _387  and  _388
REMARK  161  A    between atoms: _387  and  _390
REMARK  162  A    between atoms: _390  and  _391
REMARK  163  A    between atoms: _393  and  _395
REMARK  164  A    between atoms: _395  and  _396
REMARK  165  A    between atoms: _395  and  _398
REMARK  166  A    between atoms: _398  and  _399
REMARK  167  A    between atoms: _405  and  _407
REMARK  168  A    between atoms: _407  and  _408
REMARK  169  A    between atoms: _407  and  _410
REMARK  170  A    between atoms: _410  and  _411
REMARK  171  A    between atoms: _411  and  _412
REMARK                            x       y       z     vdW  Elec       q    Type
REMARK                         _______ _______ _______ _____ _____    ______ ____
ROOT
ATOM      1  CA  MET A   1      41.735   1.046 -44.022  0.00  0.00    +0.134 C 
ENDROOT
BRANCH   1   2
ATOM      2  N   MET A   1      42.453   2.167 -44.642  0.00  0.00    -0.239 NA
ATOM      3  H   MET A   1      41.924   3.008 -44.950  0.00  0.00    +0.142 HD
ENDBRANCH   1   2
BRANCH   1   4
ATOM      4  C   MET A   1      41.989  -0.267 -44.770  0.00  0.00    +0.224 C 
ATOM      5  O   MET A   1      42.269  -1.300 -44.153  0.00  0.00    -0.287 OA
ENDBRANCH   1   4
BRANCH   1   6
ATOM      6  CB  MET A   1      40.227   1.314 -43.917  0.00  0.00    +0.037 C 
BRANCH   6   7
ATOM      7  CG  MET A   1      39.822   2.452 -42.978  0.00  0.00    +0.059 C 
BRANCH   7   8
ATOM      8  SD  MET A   1      40.344   2.247 -41.254  0.00  0.00    -0.139 S 
ATOM      9  CE  MET A   1      41.878   3.183 -41.240  0.00  0.00    +0.069 C 
ENDBRANCH   7   8
ENDBRANCH   6   7
ENDBRANCH   1   6
TORSDOF 5
REMARK  Name = ../refined-set-2016/2x8z/2x8z_pocket.pdb
REMARK  171 active torsions:
REMARK  status: ('A' for Active; 'I' for Inactive)
REMARK    1  A    between atoms: _1  and  _3
REMARK    2  A    between atoms: _3  and  _4
REMARK    3  A    between atoms: _3  and  _6
REMARK    4  A    between atoms: _6  and  _7
REMARK    5  A    between atoms: _7  and  _8
REMARK    6  A    between atoms: _11  and  _13
REMARK    7  A    between atoms: _13  and  _14
REMARK    8  A    between atoms: _13  and  _16
REMARK    9  A    between atoms: _16  and  _17
REMARK   10  A    between atoms: _22  and  _24
REMARK   11  A    between atoms: _24  and  _25
REMARK   12  A    between atoms: _24  and  _27
REMARK   13  A    between atoms: _27  and  _28
REMARK   14  A    between atoms: _38  and  _40
REMARK   15  A    between atoms: _40  and  _41
REMARK   16  A    between atoms: _40  and  _43
REMARK   17  A    between atoms: _43  and  _44
REMARK   18  A    between atoms: _44  and  _45
REMARK   19  A    between atoms: _50  and  _52
REMARK   20  A    between atoms: _52  and  _53
REMARK   21  A    between atoms: _52  and  _55
REMARK   22  A    between atoms: _55  and  _56
REMARK   23  A    between atoms: _56  and  _57
REMARK   24  A    between atoms: _62  and  _64
REMARK   25  A    between atoms: _64  and  _65
REMARK   26  A    between atoms: _64  and  _67
REMARK   27  A    between atoms: _69  and  _71
REMARK   28  A    between atoms: _71  and  _72
REMARK   29  A    between atoms: _71  and  _74
REMARK   30  A    between atoms: _74  and  _75
REMARK   31  A    between atoms: _80  and  _82
REMARK   32  A    between atoms: _82  and  _83
REMARK   33  A    between atoms: _86  and  _88
REMARK   34  A    between atoms: _88  and  _89
REMARK   35  A    between atoms: _88  and  _91
REMARK   36  A    between atoms: _91  and  _92
REMARK   37  A    between atoms: _94  and  _96
REMARK   38  A    between atoms: _96  and  _97
REMARK   39  A    between atoms: _100  and  _102
REMARK   40  A    between atoms: _102  and  _103
REMARK   41  A    between atoms: _102  and  _105
REMARK   42  A    between atoms: _105  and  _106
REMARK   43  A    between atoms: _106  and  _107
REMARK   44  A    between atoms: _112  and  _114
REMARK   45  A    between atoms: _114  and  _115
REMARK   46  A    between atoms: _114  and  _117
REMARK   47  A    between atoms: _117  and  _118
REMARK   48  A    between atoms: _118  and  _119
REMARK   49  A    between atoms: _124  and  _126
REMARK   50  A    between atoms: _126  and  _127
REMARK   51  A    between atoms: _126  and  _129
REMARK   52  A    between atoms: _129  and  _130
REMARK   53  A    between atoms: _136  and  _138
REMARK   54  A    between atoms: _138  and  _139
REMARK   55  A    between atoms: _138  and  _141
REMARK   56  A    between atoms: _141  and  _142
REMARK   57  A    between atoms: _145  and  _147
REMARK   58  A    between atoms: _147  and  _148
REMARK   59  A    between atoms: _147  and  _150
REMARK   60  A    between atoms: _153  and  _155
REMARK   61  A    between atoms: _155  and  _156
REMARK   62  A    between atoms: _155  and  _158
REMARK   63  A    between atoms: _158  and  _159
REMARK   64  A    between atoms: _163  and  ZN_417
REMARK   65  A    between atoms: _164  and  _166
REMARK   66  A    between atoms: _166  and  _167
REMARK   67  A    between atoms: _166  and  _169
REMARK   68  A    between atoms: _169  and  _170
REMARK   69  A    between atoms: _170  and  _171
REMARK   70  A    between atoms: _174  and  _176
REMARK   71  A    between atoms: _176  and  _177
REMARK   72  A    between atoms: _176  and  _179
REMARK   73  A    between atoms: _179  and  _180
REMARK   74  A    between atoms: _184  and  ZN_417
REMARK   75  A    between atoms: _185  and  _187
REMARK   76  A    between atoms: _187  and  _188
REMARK   77  A    between atoms: _187  and  _190
REMARK   78  A    between atoms: _190  and  _191
REMARK   79  A    between atoms: _196  and  _198
REMARK   80  A    between atoms: _198  and  _199
REMARK   81  A    between atoms: _198  and  _201
REMARK   82  A    between atoms: _201  and  _202
REMARK   83  A    between atoms: _202  and  _203
REMARK   84  A    between atoms: _203  and  _204
REMARK   85  A    between atoms: _204  and  ZN_417
REMARK   86  A    between atoms: _206  and  _208
REMARK   87  A    between atoms: _208  and  _209
REMARK   88  A    between atoms: _208  and  _211
REMARK   89  A    between atoms: _211  and  _212
REMARK   90  A    between atoms: _215  and  _217
REMARK   91  A    between atoms: _217  and  _218
REMARK   92  A    between atoms: _217  and  _220
REMARK   93  A    between atoms: _220  and  _221
REMARK   94  A    between atoms: _224  and  _226
REMARK   95  A    between atoms: _226  and  _227
REMARK   96  A    between atoms: _226  and  _229
REMARK   97  A    between atoms: _229  and  _230
REMARK   98  A    between atoms: _230  and  _231
REMARK   99  A    between atoms: _231  and  _232
REMARK  100  A    between atoms: _232  and  _233
REMARK  101  A    between atoms: _237  and  _239
REMARK  102  A    between atoms: _239  and  _240
REMARK  103  A    between atoms: _239  and  _242
REMARK  104  A    between atoms: _242  and  _243
REMARK  105  A    between atoms: _249  and  _251
REMARK  106  A    between atoms: _251  and  _252
REMARK  107  A    between atoms: _251  and  _254
REMARK  108  A    between atoms: _254  and  _255
REMARK  109  A    between atoms: _261  and  _263
REMARK  110  A    between atoms: _263  and  _264
REMARK  111  A    between atoms: _267  and  _269
REMARK  112  A    between atoms: _269  and  _270
REMARK  113  A    between atoms: _269  and  _272
REMARK  114  A    between atoms: _272  and  _273
REMARK  115  A    between atoms: _273  and  _274
REMARK  116  A    between atoms: _276  and  _278
REMARK  117  A    between atoms: _278  and  _279
REMARK  118  A    between atoms: _278  and  _281
REMARK  119  A    between atoms: _281  and  _282
REMARK  120  A    between atoms: _282  and  _283
REMARK  121  A    between atoms: _283  and  _284
REMARK  122  A    between atoms: _284  and  _285
REMARK  123  A    between atoms: _289  and  _291
REMARK  124  A    between atoms: _291  and  _292
REMARK  125  A    between atoms: _291  and  _294
REMARK  126  A    between atoms: _294  and  _295
REMARK  127  A    between atoms: _300  and  _301
REMARK  128  A    between atoms: _303  and  _305
REMARK  129  A    between atoms: _305  and  _306
REMARK  130  A    between atoms: _305  and  _308
REMARK  131  A    between atoms: _308  and  _309
REMARK  132  A    between atoms: _314  and  _316
REMARK  133  A    between atoms: _316  and  _317
REMARK  134  A    between atoms: _316  and  _319
REMARK  135  A    between atoms: _319  and  _320
REMARK  136  A    between atoms: _323  and  _325
REMARK  137  A    between atoms: _325  and  _326
REMARK  138  A    between atoms: _325  and  _328
REMARK  139  A    between atoms: _331  and  _333
REMARK  140  A    between atoms: _333  and  _334
REMARK  141  A    between atoms: _333  and  _336
REMARK  142  A    between atoms: _336  and  _337
REMARK  143  A    between atoms: _342  and  _343
REMARK  144  A    between atoms: _345  and  _347
REMARK  145  A    between atoms: _347  and  _348
REMARK  146  A    between atoms: _347  and  _350
REMARK  147  A    between atoms: _350  and  _351
REMARK  148  A    between atoms: _351  and  _352
REMARK  149  A    between atoms: _352  and  _353
REMARK  150  A    between atoms: _362  and  _364
REMARK  151  A    between atoms: _364  and  _365
REMARK  152  A    between atoms: _364  and  _367
REMARK  153  A    between atoms: _367  and  _368
REMARK  154  A    between atoms: _373  and  _374
REMARK  155  A    between atoms: _376  and  _378
REMARK  156  A    between atoms: _378  and  _379
REMARK  157  A    between atoms: _378  and  _381
REMARK  158  A    between atoms: _381  and  _382
REMARK  159  A    between atoms: _385  and  _387
REMARK  160  A    between atoms: _387  and  _388
REMARK  161  A    between atoms: _387  and  _390
REMARK  162  A    between atoms: _390  and  _391
REMARK  163  A    between atoms: _393  and  _395
REMARK  164  A    between atoms: _395  and  _396
REMARK  165  A    between atoms: _395  and  _398
REMARK  166  A    between atoms: _398  and  _399
REMARK  167  A    between atoms: _405  and  _407
REMARK  168  A    between atoms: _407  and  _408
REMARK  169  A    between atoms: _407  and  _410
REMARK  170  A    between atoms: _410  and  _411
REMARK  171  A    between atoms: _411  and  _412
REMARK                            x       y       z     vdW  Elec       q    Type
REMARK                         _______ _______ _______ _____ _____    ______ ____
ROOT
ATOM      1  CA  TYR A   2      33.615  -0.802 -36.787  0.00  0.00    +0.153 C 
ENDROOT
BRANCH   1   3
ATOM      2  C   LYS A   1      35.969  -0.120 -36.642  0.00  0.00    +0.238 C 
ATOM      3  N   TYR A   2      34.676   0.206 -36.645  0.00  0.00    -0.297 N 
ATOM      4  H   TYR A   2      34.409   1.206 -36.544  0.00  0.00    +0.150 HD
ATOM      5  O   LYS A   1      36.379  -1.259 -36.887  0.00  0.00    -0.274 OA
BRANCH   2   6
ATOM      6  CA  LYS A   1      36.956   1.000 -36.320  0.00  0.00    +0.145 C 
BRANCH   6   7
ATOM      7  N   LYS A   1      37.834   0.560 -35.228  0.00  0.00    -0.238 NA
ATOM      8  H   LYS A   1      38.687   0.016 -35.468  0.00  0.00    +0.142 HD
ENDBRANCH   6   7
BRANCH   6   9
ATOM      9  CB  LYS A   1      37.784   1.355 -37.564  0.00  0.00    +0.026 C 
BRANCH   9  10
ATOM     10  CG  LYS A   1      36.971   1.736 -38.810  0.00  0.00    -0.000 C 
BRANCH  10  11
ATOM     11  CD  LYS A   1      36.270   3.078 -38.647  0.00  0.00    -0.024 C 
BRANCH  11  12
ATOM     12  CE  LYS A   1      35.281   3.317 -39.777  0.00  0.00    -0.086 C 
BRANCH  12  13
ATOM     13  NZ  LYS A   1      34.159   4.197 -39.343  0.00  0.00    +0.380 N 
ATOM     14  HZ1 LYS A   1      33.654   3.748 -38.552  0.00  0.00    -0.089 HD
ATOM     15  HZ2 LYS A   1      34.539   5.116 -39.037  0.00  0.00    -0.089 HD
ATOM     16  HZ3 LYS A   1      33.504   4.339 -40.138  0.00  0.00    -0.089 HD
ENDBRANCH  12  13
ENDBRANCH  11  12
ENDBRANCH  10  11
ENDBRANCH   9  10
ENDBRANCH   6   9
ENDBRANCH   2   6
ENDBRANCH   1   3
BRANCH   1  17
ATOM     17  C   TYR A   2      33.867  -1.824 -37.908  0.00  0.00    +0.241 C 
ATOM     18  O   TYR A   2      33.813  -3.032 -37.677  0.00  0.00    -0.273 OA
ATOM     19  N   HIS A   3      34.140  -1.322 -39.109  0.00  0.00    -0.297 N 
ATOM     20  H   HIS A   3      34.240  -0.292 -39.210  0.00  0.00    +0.150 HD
BRANCH  19  21
ATOM     21  CA  HIS A   3      34.305  -2.165 -40.295  0.00  0.00    +0.155 C 
BRANCH  21  22
ATOM     22  C   HIS A   3      35.458  -3.154 -40.181  0.00  0.00    +0.241 C 
ATOM     23  N   ILE A   4      36.473  -2.802 -39.398  0.00  0.00    -0.298 N 
ATOM     24  H   ILE A   4      36.470  -1.865 -38.946  0.00  0.00    +0.150 HD
ATOM     25  O   HIS A   3      35.427  -4.222 -40.798  0.00  0.00    -0.273 OA
BRANCH  23  26
ATOM     26  CA  ILE A   4      37.595  -3.713 -39.162  0.00  0.00    +0.137 C 
BRANCH  26  27
ATOM     27  C   ILE A   4      37.197  -4.849 -38.203  0.00  0.00    +0.227 C 
ATOM     28  O   ILE A   4      37.523  -6.010 -38.453  0.00  0.00    -0.286 OA
ENDBRANCH  26  27
BRANCH  26  29
ATOM     29  CB  ILE A   4      38.876  -2.954 -38.718  0.00  0.00    +0.026 C 
ATOM     30  CG2 ILE A   4      40.004  -3.923 -38.383  0.00  0.00    +0.002 C 
BRANCH  29  31
ATOM     31  CG1 ILE A   4      39.304  -1.985 -39.835  0.00  0.00    +0.002 C 
ATOM     32  CD1 ILE A   4      40.656  -1.309 -39.628  0.00  0.00    +0.000 C 
ENDBRANCH  29  31
ENDBRANCH  26  29
ENDBRANCH  23  26
ENDBRANCH  21  22
BRANCH  21  33
ATOM     33  CB  HIS A   3      34.497  -1.296 -41.531  0.00  0.00    +0.076 C 
BRANCH  33  34
ATOM     34  CG  HIS A   3      33.357  -0.365 -41.796  0.00  0.00    +0.082 A 
ATOM     35  ND1 HIS A   3      33.110   0.746 -41.020  0.00  0.00    -0.227 NA
ATOM     36  CE1 HIS A   3      32.052   1.380 -41.490  0.00  0.00    +0.199 A 
ATOM     37  NE2 HIS A   3      31.611   0.727 -42.549  0.00  0.00    -0.221 NA
ATOM     38  CD2 HIS A   3      32.408  -0.371 -42.761  0.00  0.00    +0.115 A 
ENDBRANCH  33  34
ENDBRANCH  21  33
ENDBRANCH  19  21
ENDBRANCH   1  17
BRANCH   1  39
ATOM     39  CB  TYR A   2      32.240  -0.147 -36.987  0.00  0.00    +0.055 C 
BRANCH  39  40
ATOM     40  CG  TYR A   2      31.176  -1.146 -37.404  0.00  0.00    -0.020 A 
ATOM     41  CD2 TYR A   2      30.617  -2.017 -36.471  0.00  0.00    -0.001 A 
ATOM     42  CE2 TYR A   2      29.659  -2.948 -36.838  0.00  0.00    +0.036 A 
ATOM     43  CZ  TYR A   2      29.248  -3.023 -38.157  0.00  0.00    +0.134 A 
ATOM     44  CE1 TYR A   2      29.791  -2.182 -39.119  0.00  0.00    +0.036 A 
ATOM     45  CD1 TYR A   2      30.758  -1.245 -38.736  0.00  0.00    -0.001 A 
BRANCH  43  46
ATOM     46  OH  TYR A   2      28.303  -3.953 -38.497  0.00  0.00    -0.506 OA
ATOM     47  HH  TYR A   2      27.513  -3.495 -38.880  0.00  0.00    +0.292 HD
ENDBRANCH  43  46
ENDBRANCH  39  40
ENDBRANCH   1  39
TORSDOF 20
REMARK  Name = ../refined-set-2016/2x8z/2x8z_pocket.pdb
REMARK  171 active torsions:
REMARK  status: ('A' for Active; 'I' for Inactive)
REMARK    1  A    between atoms: _1  and  _3
REMARK    2  A    between atoms: _3  and  _4
REMARK    3  A    between atoms: _3  and  _6
REMARK    4  A    between atoms: _6  and  _7
REMARK    5  A    between atoms: _7  and  _8
REMARK    6  A    between atoms: _11  and  _13
REMARK    7  A    between atoms: _13  and  _14
REMARK    8  A    between atoms: _13  and  _16
REMARK    9  A    between atoms: _16  and  _17
REMARK   10  A    between atoms: _22  and  _24
REMARK   11  A    between atoms: _24  and  _25
REMARK   12  A    between atoms: _24  and  _27
REMARK   13  A    between atoms: _27  and  _28
REMARK   14  A    between atoms: _38  and  _40
REMARK   15  A    between atoms: _40  and  _41
REMARK   16  A    between atoms: _40  and  _43
REMARK   17  A    between atoms: _43  and  _44
REMARK   18  A    between atoms: _44  and  _45
REMARK   19  A    between atoms: _50  and  _52
REMARK   20  A    between atoms: _52  and  _53
REMARK   21  A    between atoms: _52  and  _55
REMARK   22  A    between atoms: _55  and  _56
REMARK   23  A    between atoms: _56  and  _57
REMARK   24  A    between atoms: _62  and  _64
REMARK   25  A    between atoms: _64  and  _65
REMARK   26  A    between atoms: _64  and  _67
REMARK   27  A    between atoms: _69  and  _71
REMARK   28  A    between atoms: _71  and  _72
REMARK   29  A    between atoms: _71  and  _74
REMARK   30  A    between atoms: _74  and  _75
REMARK   31  A    between atoms: _80  and  _82
REMARK   32  A    between atoms: _82  and  _83
REMARK   33  A    between atoms: _86  and  _88
REMARK   34  A    between atoms: _88  and  _89
REMARK   35  A    between atoms: _88  and  _91
REMARK   36  A    between atoms: _91  and  _92
REMARK   37  A    between atoms: _94  and  _96
REMARK   38  A    between atoms: _96  and  _97
REMARK   39  A    between atoms: _100  and  _102
REMARK   40  A    between atoms: _102  and  _103
REMARK   41  A    between atoms: _102  and  _105
REMARK   42  A    between atoms: _105  and  _106
REMARK   43  A    between atoms: _106  and  _107
REMARK   44  A    between atoms: _112  and  _114
REMARK   45  A    between atoms: _114  and  _115
REMARK   46  A    between atoms: _114  and  _117
REMARK   47  A    between atoms: _117  and  _118
REMARK   48  A    between atoms: _118  and  _119
REMARK   49  A    between atoms: _124  and  _126
REMARK   50  A    between atoms: _126  and  _127
REMARK   51  A    between atoms: _126  and  _129
REMARK   52  A    between atoms: _129  and  _130
REMARK   53  A    between atoms: _136  and  _138
REMARK   54  A    between atoms: _138  and  _139
REMARK   55  A    between atoms: _138  and  _141
REMARK   56  A    between atoms: _141  and  _142
REMARK   57  A    between atoms: _145  and  _147
REMARK   58  A    between atoms: _147  and  _148
REMARK   59  A    between atoms: _147  and  _150
REMARK   60  A    between atoms: _153  and  _155
REMARK   61  A    between atoms: _155  and  _156
REMARK   62  A    between atoms: _155  and  _158
REMARK   63  A    between atoms: _158  and  _159
REMARK   64  A    between atoms: _163  and  ZN_417
REMARK   65  A    between atoms: _164  and  _166
REMARK   66  A    between atoms: _166  and  _167
REMARK   67  A    between atoms: _166  and  _169
REMARK   68  A    between atoms: _169  and  _170
REMARK   69  A    between atoms: _170  and  _171
REMARK   70  A    between atoms: _174  and  _176
REMARK   71  A    between atoms: _176  and  _177
REMARK   72  A    between atoms: _176  and  _179
REMARK   73  A    between atoms: _179  and  _180
REMARK   74  A    between atoms: _184  and  ZN_417
REMARK   75  A    between atoms: _185  and  _187
REMARK   76  A    between atoms: _187  and  _188
REMARK   77  A    between atoms: _187  and  _190
REMARK   78  A    between atoms: _190  and  _191
REMARK   79  A    between atoms: _196  and  _198
REMARK   80  A    between atoms: _198  and  _199
REMARK   81  A    between atoms: _198  and  _201
REMARK   82  A    between atoms: _201  and  _202
REMARK   83  A    between atoms: _202  and  _203
REMARK   84  A    between atoms: _203  and  _204
REMARK   85  A    between atoms: _204  and  ZN_417
REMARK   86  A    between atoms: _206  and  _208
REMARK   87  A    between atoms: _208  and  _209
REMARK   88  A    between atoms: _208  and  _211
REMARK   89  A    between atoms: _211  and  _212
REMARK   90  A    between atoms: _215  and  _217
REMARK   91  A    between atoms: _217  and  _218
REMARK   92  A    between atoms: _217  and  _220
REMARK   93  A    between atoms: _220  and  _221
REMARK   94  A    between atoms: _224  and  _226
REMARK   95  A    between atoms: _226  and  _227
REMARK   96  A    between atoms: _226  and  _229
REMARK   97  A    between atoms: _229  and  _230
REMARK   98  A    between atoms: _230  and  _231
REMARK   99  A    between atoms: _231  and  _232
REMARK  100  A    between atoms: _232  and  _233
REMARK  101  A    between atoms: _237  and  _239
REMARK  102  A    between atoms: _239  and  _240
REMARK  103  A    between atoms: _239  and  _242
REMARK  104  A    between atoms: _242  and  _243
REMARK  105  A    between atoms: _249  and  _251
REMARK  106  A    between atoms: _251  and  _252
REMARK  107  A    between atoms: _251  and  _254
REMARK  108  A    between atoms: _254  and  _255
REMARK  109  A    between atoms: _261  and  _263
REMARK  110  A    between atoms: _263  and  _264
REMARK  111  A    between atoms: _267  and  _269
REMARK  112  A    between atoms: _269  and  _270
REMARK  113  A    between atoms: _269  and  _272
REMARK  114  A    between atoms: _272  and  _273
REMARK  115  A    between atoms: _273  and  _274
REMARK  116  A    between atoms: _276  and  _278
REMARK  117  A    between atoms: _278  and  _279
REMARK  118  A    between atoms: _278  and  _281
REMARK  119  A    between atoms: _281  and  _282
REMARK  120  A    between atoms: _282  and  _283
REMARK  121  A    between atoms: _283  and  _284
REMARK  122  A    between atoms: _284  and  _285
REMARK  123  A    between atoms: _289  and  _291
REMARK  124  A    between atoms: _291  and  _292
REMARK  125  A    between atoms: _291  and  _294
REMARK  126  A    between atoms: _294  and  _295
REMARK  127  A    between atoms: _300  and  _301
REMARK  128  A    between atoms: _303  and  _305
REMARK  129  A    between atoms: _305  and  _306
REMARK  130  A    between atoms: _305  and  _308
REMARK  131  A    between atoms: _308  and  _309
REMARK  132  A    between atoms: _314  and  _316
REMARK  133  A    between atoms: _316  and  _317
REMARK  134  A    between atoms: _316  and  _319
REMARK  135  A    between atoms: _319  and  _320
REMARK  136  A    between atoms: _323  and  _325
REMARK  137  A    between atoms: _325  and  _326
REMARK  138  A    between atoms: _325  and  _328
REMARK  139  A    between atoms: _331  and  _333
REMARK  140  A    between atoms: _333  and  _334
REMARK  141  A    between atoms: _333  and  _336
REMARK  142  A    between atoms: _336  and  _337
REMARK  143  A    between atoms: _342  and  _343
REMARK  144  A    between atoms: _345  and  _347
REMARK  145  A    between atoms: _347  and  _348
REMARK  146  A    between atoms: _347  and  _350
REMARK  147  A    between atoms: _350  and  _351
REMARK  148  A    between atoms: _351  and  _352
REMARK  149  A    between atoms: _352  and  _353
REMARK  150  A    between atoms: _362  and  _364
REMARK  151  A    between atoms: _364  and  _365
REMARK  152  A    between atoms: _364  and  _367
REMARK  153  A    between atoms: _367  and  _368
REMARK  154  A    between atoms: _373  and  _374
REMARK  155  A    between atoms: _376  and  _378
REMARK  156  A    between atoms: _378  and  _379
REMARK  157  A    between atoms: _378  and  _381
REMARK  158  A    between atoms: _381  and  _382
REMARK  159  A    between atoms: _385  and  _387
REMARK  160  A    between atoms: _387  and  _388
REMARK  161  A    between atoms: _387  and  _390
REMARK  162  A    between atoms: _390  and  _391
REMARK  163  A    between atoms: _393  and  _395
REMARK  164  A    between atoms: _395  and  _396
REMARK  165  A    between atoms: _395  and  _398
REMARK  166  A    between atoms: _398  and  _399
REMARK  167  A    between atoms: _405  and  _407
REMARK  168  A    between atoms: _407  and  _408
REMARK  169  A    between atoms: _407  and  _410
REMARK  170  A    between atoms: _410  and  _411
REMARK  171  A    between atoms: _411  and  _412
REMARK                            x       y       z     vdW  Elec       q    Type
REMARK                         _______ _______ _______ _____ _____    ______ ____
ROOT
ATOM      1  CA  VAL A   1      33.477  -5.197 -44.006  0.00  0.00    +0.133 C 
ENDROOT
BRANCH   1   2
ATOM      2  CB  VAL A   1      32.380  -4.180 -43.568  0.00  0.00    +0.023 C 
ATOM      3  CG2 VAL A   1      31.278  -4.881 -42.779  0.00  0.00    +0.002 C 
ATOM      4  CG1 VAL A   1      31.780  -3.454 -44.780  0.00  0.00    +0.002 C 
ENDBRANCH   1   2
BRANCH   1   5
ATOM      5  N   VAL A   1      34.132  -5.818 -42.858  0.00  0.00    -0.239 NA
ATOM      6  H   VAL A   1      34.583  -5.212 -42.143  0.00  0.00    +0.142 HD
ENDBRANCH   1   5
BRANCH   1   7
ATOM      7  C   VAL A   1      34.552  -4.506 -44.830  0.00  0.00    +0.224 C 
ATOM      8  O   VAL A   1      35.280  -3.660 -44.316  0.00  0.00    -0.287 OA
ENDBRANCH   1   7
TORSDOF 3
REMARK  Name = ../refined-set-2016/2x8z/2x8z_pocket.pdb
REMARK  171 active torsions:
REMARK  status: ('A' for Active; 'I' for Inactive)
REMARK    1  A    between atoms: _1  and  _3
REMARK    2  A    between atoms: _3  and  _4
REMARK    3  A    between atoms: _3  and  _6
REMARK    4  A    between atoms: _6  and  _7
REMARK    5  A    between atoms: _7  and  _8
REMARK    6  A    between atoms: _11  and  _13
REMARK    7  A    between atoms: _13  and  _14
REMARK    8  A    between atoms: _13  and  _16
REMARK    9  A    between atoms: _16  and  _17
REMARK   10  A    between atoms: _22  and  _24
REMARK   11  A    between atoms: _24  and  _25
REMARK   12  A    between atoms: _24  and  _27
REMARK   13  A    between atoms: _27  and  _28
REMARK   14  A    between atoms: _38  and  _40
REMARK   15  A    between atoms: _40  and  _41
REMARK   16  A    between atoms: _40  and  _43
REMARK   17  A    between atoms: _43  and  _44
REMARK   18  A    between atoms: _44  and  _45
REMARK   19  A    between atoms: _50  and  _52
REMARK   20  A    between atoms: _52  and  _53
REMARK   21  A    between atoms: _52  and  _55
REMARK   22  A    between atoms: _55  and  _56
REMARK   23  A    between atoms: _56  and  _57
REMARK   24  A    between atoms: _62  and  _64
REMARK   25  A    between atoms: _64  and  _65
REMARK   26  A    between atoms: _64  and  _67
REMARK   27  A    between atoms: _69  and  _71
REMARK   28  A    between atoms: _71  and  _72
REMARK   29  A    between atoms: _71  and  _74
REMARK   30  A    between atoms: _74  and  _75
REMARK   31  A    between atoms: _80  and  _82
REMARK   32  A    between atoms: _82  and  _83
REMARK   33  A    between atoms: _86  and  _88
REMARK   34  A    between atoms: _88  and  _89
REMARK   35  A    between atoms: _88  and  _91
REMARK   36  A    between atoms: _91  and  _92
REMARK   37  A    between atoms: _94  and  _96
REMARK   38  A    between atoms: _96  and  _97
REMARK   39  A    between atoms: _100  and  _102
REMARK   40  A    between atoms: _102  and  _103
REMARK   41  A    between atoms: _102  and  _105
REMARK   42  A    between atoms: _105  and  _106
REMARK   43  A    between atoms: _106  and  _107
REMARK   44  A    between atoms: _112  and  _114
REMARK   45  A    between atoms: _114  and  _115
REMARK   46  A    between atoms: _114  and  _117
REMARK   47  A    between atoms: _117  and  _118
REMARK   48  A    between atoms: _118  and  _119
REMARK   49  A    between atoms: _124  and  _126
REMARK   50  A    between atoms: _126  and  _127
REMARK   51  A    between atoms: _126  and  _129
REMARK   52  A    between atoms: _129  and  _130
REMARK   53  A    between atoms: _136  and  _138
REMARK   54  A    between atoms: _138  and  _139
REMARK   55  A    between atoms: _138  and  _141
REMARK   56  A    between atoms: _141  and  _142
REMARK   57  A    between atoms: _145  and  _147
REMARK   58  A    between atoms: _147  and  _148
REMARK   59  A    between atoms: _147  and  _150
REMARK   60  A    between atoms: _153  and  _155
REMARK   61  A    between atoms: _155  and  _156
REMARK   62  A    between atoms: _155  and  _158
REMARK   63  A    between atoms: _158  and  _159
REMARK   64  A    between atoms: _163  and  ZN_417
REMARK   65  A    between atoms: _164  and  _166
REMARK   66  A    between atoms: _166  and  _167
REMARK   67  A    between atoms: _166  and  _169
REMARK   68  A    between atoms: _169  and  _170
REMARK   69  A    between atoms: _170  and  _171
REMARK   70  A    between atoms: _174  and  _176
REMARK   71  A    between atoms: _176  and  _177
REMARK   72  A    between atoms: _176  and  _179
REMARK   73  A    between atoms: _179  and  _180
REMARK   74  A    between atoms: _184  and  ZN_417
REMARK   75  A    between atoms: _185  and  _187
REMARK   76  A    between atoms: _187  and  _188
REMARK   77  A    between atoms: _187  and  _190
REMARK   78  A    between atoms: _190  and  _191
REMARK   79  A    between atoms: _196  and  _198
REMARK   80  A    between atoms: _198  and  _199
REMARK   81  A    between atoms: _198  and  _201
REMARK   82  A    between atoms: _201  and  _202
REMARK   83  A    between atoms: _202  and  _203
REMARK   84  A    between atoms: _203  and  _204
REMARK   85  A    between atoms: _204  and  ZN_417
REMARK   86  A    between atoms: _206  and  _208
REMARK   87  A    between atoms: _208  and  _209
REMARK   88  A    between atoms: _208  and  _211
REMARK   89  A    between atoms: _211  and  _212
REMARK   90  A    between atoms: _215  and  _217
REMARK   91  A    between atoms: _217  and  _218
REMARK   92  A    between atoms: _217  and  _220
REMARK   93  A    between atoms: _220  and  _221
REMARK   94  A    between atoms: _224  and  _226
REMARK   95  A    between atoms: _226  and  _227
REMARK   96  A    between atoms: _226  and  _229
REMARK   97  A    between atoms: _229  and  _230
REMARK   98  A    between atoms: _230  and  _231
REMARK   99  A    between atoms: _231  and  _232
REMARK  100  A    between atoms: _232  and  _233
REMARK  101  A    between atoms: _237  and  _239
REMARK  102  A    between atoms: _239  and  _240
REMARK  103  A    between atoms: _239  and  _242
REMARK  104  A    between atoms: _242  and  _243
REMARK  105  A    between atoms: _249  and  _251
REMARK  106  A    between atoms: _251  and  _252
REMARK  107  A    between atoms: _251  and  _254
REMARK  108  A    between atoms: _254  and  _255
REMARK  109  A    between atoms: _261  and  _263
REMARK  110  A    between atoms: _263  and  _264
REMARK  111  A    between atoms: _267  and  _269
REMARK  112  A    between atoms: _269  and  _270
REMARK  113  A    between atoms: _269  and  _272
REMARK  114  A    between atoms: _272  and  _273
REMARK  115  A    between atoms: _273  and  _274
REMARK  116  A    between atoms: _276  and  _278
REMARK  117  A    between atoms: _278  and  _279
REMARK  118  A    between atoms: _278  and  _281
REMARK  119  A    between atoms: _281  and  _282
REMARK  120  A    between atoms: _282  and  _283
REMARK  121  A    between atoms: _283  and  _284
REMARK  122  A    between atoms: _284  and  _285
REMARK  123  A    between atoms: _289  and  _291
REMARK  124  A    between atoms: _291  and  _292
REMARK  125  A    between atoms: _291  and  _294
REMARK  126  A    between atoms: _294  and  _295
REMARK  127  A    between atoms: _300  and  _301
REMARK  128  A    between atoms: _303  and  _305
REMARK  129  A    between atoms: _305  and  _306
REMARK  130  A    between atoms: _305  and  _308
REMARK  131  A    between atoms: _308  and  _309
REMARK  132  A    between atoms: _314  and  _316
REMARK  133  A    between atoms: _316  and  _317
REMARK  134  A    between atoms: _316  and  _319
REMARK  135  A    between atoms: _319  and  _320
REMARK  136  A    between atoms: _323  and  _325
REMARK  137  A    between atoms: _325  and  _326
REMARK  138  A    between atoms: _325  and  _328
REMARK  139  A    between atoms: _331  and  _333
REMARK  140  A    between atoms: _333  and  _334
REMARK  141  A    between atoms: _333  and  _336
REMARK  142  A    between atoms: _336  and  _337
REMARK  143  A    between atoms: _342  and  _343
REMARK  144  A    between atoms: _345  and  _347
REMARK  145  A    between atoms: _347  and  _348
REMARK  146  A    between atoms: _347  and  _350
REMARK  147  A    between atoms: _350  and  _351
REMARK  148  A    between atoms: _351  and  _352
REMARK  149  A    between atoms: _352  and  _353
REMARK  150  A    between atoms: _362  and  _364
REMARK  151  A    between atoms: _364  and  _365
REMARK  152  A    between atoms: _364  and  _367
REMARK  153  A    between atoms: _367  and  _368
REMARK  154  A    between atoms: _373  and  _374
REMARK  155  A    between atoms: _376  and  _378
REMARK  156  A    between atoms: _378  and  _379
REMARK  157  A    between atoms: _378  and  _381
REMARK  158  A    between atoms: _381  and  _382
REMARK  159  A    between atoms: _385  and  _387
REMARK  160  A    between atoms: _387  and  _388
REMARK  161  A    between atoms: _387  and  _390
REMARK  162  A    between atoms: _390  and  _391
REMARK  163  A    between atoms: _393  and  _395
REMARK  164  A    between atoms: _395  and  _396
REMARK  165  A    between atoms: _395  and  _398
REMARK  166  A    between atoms: _398  and  _399
REMARK  167  A    between atoms: _405  and  _407
REMARK  168  A    between atoms: _407  and  _408
REMARK  169  A    between atoms: _407  and  _410
REMARK  170  A    between atoms: _410  and  _411
REMARK  171  A    between atoms: _411  and  _412
REMARK                            x       y       z     vdW  Elec       q    Type
REMARK                         _______ _______ _______ _____ _____    ______ ____
ROOT
ATOM      1  CG  TYR A   1      36.640   1.231 -45.128  0.00  0.00    -0.020 A 
ATOM      2  CD2 TYR A   1      35.651   1.069 -44.150  0.00  0.00    -0.001 A 
ATOM      3  CE2 TYR A   1      35.073   2.170 -43.524  0.00  0.00    +0.036 A 
ATOM      4  CZ  TYR A   1      35.480   3.449 -43.871  0.00  0.00    +0.134 A 
ATOM      5  CE1 TYR A   1      36.448   3.639 -44.839  0.00  0.00    +0.036 A 
ATOM      6  CD1 TYR A   1      37.025   2.528 -45.465  0.00  0.00    -0.001 A 
ENDROOT
BRANCH   4   7
ATOM      7  OH  TYR A   1      34.905   4.541 -43.262  0.00  0.00    -0.506 OA
ATOM      8  HH  TYR A   1      34.237   4.234 -42.599  0.00  0.00    +0.292 HD
ENDBRANCH   4   7
BRANCH   1   9
ATOM      9  CB  TYR A   1      37.252   0.029 -45.820  0.00  0.00    +0.051 C 
BRANCH   9  10
ATOM     10  CA  TYR A   1      36.359  -0.522 -46.948  0.00  0.00    +0.137 C 
BRANCH  10  11
ATOM     11  N   TYR A   1      36.472  -1.984 -47.060  0.00  0.00    -0.239 NA
ATOM     12  H   TYR A   1      37.413  -2.420 -47.143  0.00  0.00    +0.142 HD
ENDBRANCH  10  11
BRANCH  10  13
ATOM     13  C   TYR A   1      36.606   0.244 -48.253  0.00  0.00    +0.224 C 
ATOM     14  O   TYR A   1      36.202   1.405 -48.377  0.00  0.00    -0.287 OA
ENDBRANCH  10  13
ENDBRANCH   9  10
ENDBRANCH   1   9
TORSDOF 5
REMARK  Name = ../refined-set-2016/2x8z/2x8z_pocket.pdb
REMARK  171 active torsions:
REMARK  status: ('A' for Active; 'I' for Inactive)
REMARK    1  A    between atoms: _1  and  _3
REMARK    2  A    between atoms: _3  and  _4
REMARK    3  A    between atoms: _3  and  _6
REMARK    4  A    between atoms: _6  and  _7
REMARK    5  A    between atoms: _7  and  _8
REMARK    6  A    between atoms: _11  and  _13
REMARK    7  A    between atoms: _13  and  _14
REMARK    8  A    between atoms: _13  and  _16
REMARK    9  A    between atoms: _16  and  _17
REMARK   10  A    between atoms: _22  and  _24
REMARK   11  A    between atoms: _24  and  _25
REMARK   12  A    between atoms: _24  and  _27
REMARK   13  A    between atoms: _27  and  _28
REMARK   14  A    between atoms: _38  and  _40
REMARK   15  A    between atoms: _40  and  _41
REMARK   16  A    between atoms: _40  and  _43
REMARK   17  A    between atoms: _43  and  _44
REMARK   18  A    between atoms: _44  and  _45
REMARK   19  A    between atoms: _50  and  _52
REMARK   20  A    between atoms: _52  and  _53
REMARK   21  A    between atoms: _52  and  _55
REMARK   22  A    between atoms: _55  and  _56
REMARK   23  A    between atoms: _56  and  _57
REMARK   24  A    between atoms: _62  and  _64
REMARK   25  A    between atoms: _64  and  _65
REMARK   26  A    between atoms: _64  and  _67
REMARK   27  A    between atoms: _69  and  _71
REMARK   28  A    between atoms: _71  and  _72
REMARK   29  A    between atoms: _71  and  _74
REMARK   30  A    between atoms: _74  and  _75
REMARK   31  A    between atoms: _80  and  _82
REMARK   32  A    between atoms: _82  and  _83
REMARK   33  A    between atoms: _86  and  _88
REMARK   34  A    between atoms: _88  and  _89
REMARK   35  A    between atoms: _88  and  _91
REMARK   36  A    between atoms: _91  and  _92
REMARK   37  A    between atoms: _94  and  _96
REMARK   38  A    between atoms: _96  and  _97
REMARK   39  A    between atoms: _100  and  _102
REMARK   40  A    between atoms: _102  and  _103
REMARK   41  A    between atoms: _102  and  _105
REMARK   42  A    between atoms: _105  and  _106
REMARK   43  A    between atoms: _106  and  _107
REMARK   44  A    between atoms: _112  and  _114
REMARK   45  A    between atoms: _114  and  _115
REMARK   46  A    between atoms: _114  and  _117
REMARK   47  A    between atoms: _117  and  _118
REMARK   48  A    between atoms: _118  and  _119
REMARK   49  A    between atoms: _124  and  _126
REMARK   50  A    between atoms: _126  and  _127
REMARK   51  A    between atoms: _126  and  _129
REMARK   52  A    between atoms: _129  and  _130
REMARK   53  A    between atoms: _136  and  _138
REMARK   54  A    between atoms: _138  and  _139
REMARK   55  A    between atoms: _138  and  _141
REMARK   56  A    between atoms: _141  and  _142
REMARK   57  A    between atoms: _145  and  _147
REMARK   58  A    between atoms: _147  and  _148
REMARK   59  A    between atoms: _147  and  _150
REMARK   60  A    between atoms: _153  and  _155
REMARK   61  A    between atoms: _155  and  _156
REMARK   62  A    between atoms: _155  and  _158
REMARK   63  A    between atoms: _158  and  _159
REMARK   64  A    between atoms: _163  and  ZN_417
REMARK   65  A    between atoms: _164  and  _166
REMARK   66  A    between atoms: _166  and  _167
REMARK   67  A    between atoms: _166  and  _169
REMARK   68  A    between atoms: _169  and  _170
REMARK   69  A    between atoms: _170  and  _171
REMARK   70  A    between atoms: _174  and  _176
REMARK   71  A    between atoms: _176  and  _177
REMARK   72  A    between atoms: _176  and  _179
REMARK   73  A    between atoms: _179  and  _180
REMARK   74  A    between atoms: _184  and  ZN_417
REMARK   75  A    between atoms: _185  and  _187
REMARK   76  A    between atoms: _187  and  _188
REMARK   77  A    between atoms: _187  and  _190
REMARK   78  A    between atoms: _190  and  _191
REMARK   79  A    between atoms: _196  and  _198
REMARK   80  A    between atoms: _198  and  _199
REMARK   81  A    between atoms: _198  and  _201
REMARK   82  A    between atoms: _201  and  _202
REMARK   83  A    between atoms: _202  and  _203
REMARK   84  A    between atoms: _203  and  _204
REMARK   85  A    between atoms: _204  and  ZN_417
REMARK   86  A    between atoms: _206  and  _208
REMARK   87  A    between atoms: _208  and  _209
REMARK   88  A    between atoms: _208  and  _211
REMARK   89  A    between atoms: _211  and  _212
REMARK   90  A    between atoms: _215  and  _217
REMARK   91  A    between atoms: _217  and  _218
REMARK   92  A    between atoms: _217  and  _220
REMARK   93  A    between atoms: _220  and  _221
REMARK   94  A    between atoms: _224  and  _226
REMARK   95  A    between atoms: _226  and  _227
REMARK   96  A    between atoms: _226  and  _229
REMARK   97  A    between atoms: _229  and  _230
REMARK   98  A    between atoms: _230  and  _231
REMARK   99  A    between atoms: _231  and  _232
REMARK  100  A    between atoms: _232  and  _233
REMARK  101  A    between atoms: _237  and  _239
REMARK  102  A    between atoms: _239  and  _240
REMARK  103  A    between atoms: _239  and  _242
REMARK  104  A    between atoms: _242  and  _243
REMARK  105  A    between atoms: _249  and  _251
REMARK  106  A    between atoms: _251  and  _252
REMARK  107  A    between atoms: _251  and  _254
REMARK  108  A    between atoms: _254  and  _255
REMARK  109  A    between atoms: _261  and  _263
REMARK  110  A    between atoms: _263  and  _264
REMARK  111  A    between atoms: _267  and  _269
REMARK  112  A    between atoms: _269  and  _270
REMARK  113  A    between atoms: _269  and  _272
REMARK  114  A    between atoms: _272  and  _273
REMARK  115  A    between atoms: _273  and  _274
REMARK  116  A    between atoms: _276  and  _278
REMARK  117  A    between atoms: _278  and  _279
REMARK  118  A    between atoms: _278  and  _281
REMARK  119  A    between atoms: _281  and  _282
REMARK  120  A    between atoms: _282  and  _283
REMARK  121  A    between atoms: _283  and  _284
REMARK  122  A    between atoms: _284  and  _285
REMARK  123  A    between atoms: _289  and  _291
REMARK  124  A    between atoms: _291  and  _292
REMARK  125  A    between atoms: _291  and  _294
REMARK  126  A    between atoms: _294  and  _295
REMARK  127  A    between atoms: _300  and  _301
REMARK  128  A    between atoms: _303  and  _305
REMARK  129  A    between atoms: _305  and  _306
REMARK  130  A    between atoms: _305  and  _308
REMARK  131  A    between atoms: _308  and  _309
REMARK  132  A    between atoms: _314  and  _316
REMARK  133  A    between atoms: _316  and  _317
REMARK  134  A    between atoms: _316  and  _319
REMARK  135  A    between atoms: _319  and  _320
REMARK  136  A    between atoms: _323  and  _325
REMARK  137  A    between atoms: _325  and  _326
REMARK  138  A    between atoms: _325  and  _328
REMARK  139  A    between atoms: _331  and  _333
REMARK  140  A    between atoms: _333  and  _334
REMARK  141  A    between atoms: _333  and  _336
REMARK  142  A    between atoms: _336  and  _337
REMARK  143  A    between atoms: _342  and  _343
REMARK  144  A    between atoms: _345  and  _347
REMARK  145  A    between atoms: _347  and  _348
REMARK  146  A    between atoms: _347  and  _350
REMARK  147  A    between atoms: _350  and  _351
REMARK  148  A    between atoms: _351  and  _352
REMARK  149  A    between atoms: _352  and  _353
REMARK  150  A    between atoms: _362  and  _364
REMARK  151  A    between atoms: _364  and  _365
REMARK  152  A    between atoms: _364  and  _367
REMARK  153  A    between atoms: _367  and  _368
REMARK  154  A    between atoms: _373  and  _374
REMARK  155  A    between atoms: _376  and  _378
REMARK  156  A    between atoms: _378  and  _379
REMARK  157  A    between atoms: _378  and  _381
REMARK  158  A    between atoms: _381  and  _382
REMARK  159  A    between atoms: _385  and  _387
REMARK  160  A    between atoms: _387  and  _388
REMARK  161  A    between atoms: _387  and  _390
REMARK  162  A    between atoms: _390  and  _391
REMARK  163  A    between atoms: _393  and  _395
REMARK  164  A    between atoms: _395  and  _396
REMARK  165  A    between atoms: _395  and  _398
REMARK  166  A    between atoms: _398  and  _399
REMARK  167  A    between atoms: _405  and  _407
REMARK  168  A    between atoms: _407  and  _408
REMARK  169  A    between atoms: _407  and  _410
REMARK  170  A    between atoms: _410  and  _411
REMARK  171  A    between atoms: _411  and  _412
REMARK                            x       y       z     vdW  Elec       q    Type
REMARK                         _______ _______ _______ _____ _____    ______ ____
ROOT
ATOM      1  CA  TYR A   2      33.841   3.901 -49.607  0.00  0.00    +0.153 C 
ENDROOT
BRANCH   1   3
ATOM      2  C   ARG A   1      33.610   2.033 -51.147  0.00  0.00    +0.238 C 
ATOM      3  N   TYR A   2      34.089   2.515 -50.001  0.00  0.00    -0.297 N 
ATOM      4  H   TYR A   2      34.647   1.897 -49.378  0.00  0.00    +0.150 HD
ATOM      5  O   ARG A   1      33.001   2.730 -51.957  0.00  0.00    -0.274 OA
BRANCH   2   6
ATOM      6  CA  ARG A   1      33.864   0.552 -51.441  0.00  0.00    +0.145 C 
BRANCH   6   7
ATOM      7  N   ARG A   1      35.173   0.091 -50.981  0.00  0.00    -0.238 NA
ATOM      8  H   ARG A   1      35.229  -0.804 -50.455  0.00  0.00    +0.142 HD
ENDBRANCH   6   7
BRANCH   6   9
ATOM      9  CB  ARG A   1      32.747  -0.306 -50.836  0.00  0.00    +0.030 C 
BRANCH   9  10
ATOM     10  CG  ARG A   1      32.661  -0.248 -49.304  0.00  0.00    +0.045 C 
BRANCH  10  11
ATOM     11  CD  ARG A   1      31.657  -1.241 -48.754  0.00  0.00    +0.174 C 
BRANCH  11  12
ATOM     12  NE  ARG A   1      32.008  -2.624 -49.088  0.00  0.00    -0.265 N 
ATOM     13  CZ  ARG A   1      31.261  -3.678 -48.774  0.00  0.00    +0.342 C 
ATOM     14  NH2 ARG A   1      30.120  -3.513 -48.110  0.00  0.00    -0.292 N 
ATOM     15 HH21 ARG A   1      29.811  -2.558 -47.836  0.00  0.00    +0.255 HD
ATOM     16 HH22 ARG A   1      29.537  -4.339 -47.865  0.00  0.00    +0.255 HD
ATOM     17  NH1 ARG A   1      31.649  -4.898 -49.124  0.00  0.00    -0.292 N 
ATOM     18 HH11 ARG A   1      31.063  -5.721 -48.877  0.00  0.00    +0.255 HD
ATOM     19 HH12 ARG A   1      32.539  -5.031 -49.645  0.00  0.00    +0.255 HD
ATOM     20  HE  ARG A   1      32.896  -2.791 -49.602  0.00  0.00    +0.259 HD
ENDBRANCH  11  12
ENDBRANCH  10  11
ENDBRANCH   9  10
ENDBRANCH   6   9
ENDBRANCH   2   6
ENDBRANCH   1   3
BRANCH   1  21
ATOM     21  C   TYR A   2      34.757   4.879 -50.324  0.00  0.00    +0.241 C 
ATOM     22  N   LEU A   3      36.009   4.482 -50.556  0.00  0.00    -0.298 N 
ATOM     23  H   LEU A   3      36.344   3.580 -50.161  0.00  0.00    +0.150 HD
ATOM     24  O   TYR A   2      34.334   5.984 -50.652  0.00  0.00    -0.273 OA
BRANCH  22  25
ATOM     25  CA  LEU A   3      36.914   5.298 -51.357  0.00  0.00    +0.137 C 
BRANCH  25  26
ATOM     26  C   LEU A   3      36.356   5.440 -52.774  0.00  0.00    +0.227 C 
ATOM     27  O   LEU A   3      36.299   6.551 -53.316  0.00  0.00    -0.286 OA
ENDBRANCH  25  26
BRANCH  25  28
ATOM     28  CB  LEU A   3      38.334   4.718 -51.389  0.00  0.00    +0.028 C 
BRANCH  28  29
ATOM     29  CG  LEU A   3      39.350   5.419 -52.305  0.00  0.00    +0.002 C 
ATOM     30  CD2 LEU A   3      39.510   6.914 -51.986  0.00  0.00    +0.000 C 
ATOM     31  CD1 LEU A   3      40.702   4.720 -52.249  0.00  0.00    +0.000 C 
ENDBRANCH  28  29
ENDBRANCH  25  28
ENDBRANCH  22  25
ENDBRANCH   1  21
BRANCH   1  32
ATOM     32  CB  TYR A   2      33.939   4.077 -48.089  0.00  0.00    +0.055 C 
BRANCH  32  33
ATOM     33  CG  TYR A   2      32.946   3.238 -47.335  0.00  0.00    -0.020 A 
ATOM     34  CD2 TYR A   2      33.353   2.098 -46.651  0.00  0.00    -0.001 A 
ATOM     35  CE2 TYR A   2      32.440   1.310 -45.965  0.00  0.00    +0.036 A 
ATOM     36  CZ  TYR A   2      31.104   1.663 -45.957  0.00  0.00    +0.134 A 
ATOM     37  CE1 TYR A   2      30.670   2.794 -46.631  0.00  0.00    +0.036 A 
ATOM     38  CD1 TYR A   2      31.588   3.573 -47.318  0.00  0.00    -0.001 A 
BRANCH  36  39
ATOM     39  OH  TYR A   2      30.202   0.884 -45.275  0.00  0.00    -0.506 OA
ATOM     40  HH  TYR A   2      30.210  -0.033 -45.649  0.00  0.00    +0.292 HD
ENDBRANCH  36  39
ENDBRANCH  32  33
ENDBRANCH   1  32
TORSDOF 15
REMARK  Name = ../refined-set-2016/2x8z/2x8z_pocket.pdb
REMARK  171 active torsions:
REMARK  status: ('A' for Active; 'I' for Inactive)
REMARK    1  A    between atoms: _1  and  _3
REMARK    2  A    between atoms: _3  and  _4
REMARK    3  A    between atoms: _3  and  _6
REMARK    4  A    between atoms: _6  and  _7
REMARK    5  A    between atoms: _7  and  _8
REMARK    6  A    between atoms: _11  and  _13
REMARK    7  A    between atoms: _13  and  _14
REMARK    8  A    between atoms: _13  and  _16
REMARK    9  A    between atoms: _16  and  _17
REMARK   10  A    between atoms: _22  and  _24
REMARK   11  A    between atoms: _24  and  _25
REMARK   12  A    between atoms: _24  and  _27
REMARK   13  A    between atoms: _27  and  _28
REMARK   14  A    between atoms: _38  and  _40
REMARK   15  A    between atoms: _40  and  _41
REMARK   16  A    between atoms: _40  and  _43
REMARK   17  A    between atoms: _43  and  _44
REMARK   18  A    between atoms: _44  and  _45
REMARK   19  A    between atoms: _50  and  _52
REMARK   20  A    between atoms: _52  and  _53
REMARK   21  A    between atoms: _52  and  _55
REMARK   22  A    between atoms: _55  and  _56
REMARK   23  A    between atoms: _56  and  _57
REMARK   24  A    between atoms: _62  and  _64
REMARK   25  A    between atoms: _64  and  _65
REMARK   26  A    between atoms: _64  and  _67
REMARK   27  A    between atoms: _69  and  _71
REMARK   28  A    between atoms: _71  and  _72
REMARK   29  A    between atoms: _71  and  _74
REMARK   30  A    between atoms: _74  and  _75
REMARK   31  A    between atoms: _80  and  _82
REMARK   32  A    between atoms: _82  and  _83
REMARK   33  A    between atoms: _86  and  _88
REMARK   34  A    between atoms: _88  and  _89
REMARK   35  A    between atoms: _88  and  _91
REMARK   36  A    between atoms: _91  and  _92
REMARK   37  A    between atoms: _94  and  _96
REMARK   38  A    between atoms: _96  and  _97
REMARK   39  A    between atoms: _100  and  _102
REMARK   40  A    between atoms: _102  and  _103
REMARK   41  A    between atoms: _102  and  _105
REMARK   42  A    between atoms: _105  and  _106
REMARK   43  A    between atoms: _106  and  _107
REMARK   44  A    between atoms: _112  and  _114
REMARK   45  A    between atoms: _114  and  _115
REMARK   46  A    between atoms: _114  and  _117
REMARK   47  A    between atoms: _117  and  _118
REMARK   48  A    between atoms: _118  and  _119
REMARK   49  A    between atoms: _124  and  _126
REMARK   50  A    between atoms: _126  and  _127
REMARK   51  A    between atoms: _126  and  _129
REMARK   52  A    between atoms: _129  and  _130
REMARK   53  A    between atoms: _136  and  _138
REMARK   54  A    between atoms: _138  and  _139
REMARK   55  A    between atoms: _138  and  _141
REMARK   56  A    between atoms: _141  and  _142
REMARK   57  A    between atoms: _145  and  _147
REMARK   58  A    between atoms: _147  and  _148
REMARK   59  A    between atoms: _147  and  _150
REMARK   60  A    between atoms: _153  and  _155
REMARK   61  A    between atoms: _155  and  _156
REMARK   62  A    between atoms: _155  and  _158
REMARK   63  A    between atoms: _158  and  _159
REMARK   64  A    between atoms: _163  and  ZN_417
REMARK   65  A    between atoms: _164  and  _166
REMARK   66  A    between atoms: _166  and  _167
REMARK   67  A    between atoms: _166  and  _169
REMARK   68  A    between atoms: _169  and  _170
REMARK   69  A    between atoms: _170  and  _171
REMARK   70  A    between atoms: _174  and  _176
REMARK   71  A    between atoms: _176  and  _177
REMARK   72  A    between atoms: _176  and  _179
REMARK   73  A    between atoms: _179  and  _180
REMARK   74  A    between atoms: _184  and  ZN_417
REMARK   75  A    between atoms: _185  and  _187
REMARK   76  A    between atoms: _187  and  _188
REMARK   77  A    between atoms: _187  and  _190
REMARK   78  A    between atoms: _190  and  _191
REMARK   79  A    between atoms: _196  and  _198
REMARK   80  A    between atoms: _198  and  _199
REMARK   81  A    between atoms: _198  and  _201
REMARK   82  A    between atoms: _201  and  _202
REMARK   83  A    between atoms: _202  and  _203
REMARK   84  A    between atoms: _203  and  _204
REMARK   85  A    between atoms: _204  and  ZN_417
REMARK   86  A    between atoms: _206  and  _208
REMARK   87  A    between atoms: _208  and  _209
REMARK   88  A    between atoms: _208  and  _211
REMARK   89  A    between atoms: _211  and  _212
REMARK   90  A    between atoms: _215  and  _217
REMARK   91  A    between atoms: _217  and  _218
REMARK   92  A    between atoms: _217  and  _220
REMARK   93  A    between atoms: _220  and  _221
REMARK   94  A    between atoms: _224  and  _226
REMARK   95  A    between atoms: _226  and  _227
REMARK   96  A    between atoms: _226  and  _229
REMARK   97  A    between atoms: _229  and  _230
REMARK   98  A    between atoms: _230  and  _231
REMARK   99  A    between atoms: _231  and  _232
REMARK  100  A    between atoms: _232  and  _233
REMARK  101  A    between atoms: _237  and  _239
REMARK  102  A    between atoms: _239  and  _240
REMARK  103  A    between atoms: _239  and  _242
REMARK  104  A    between atoms: _242  and  _243
REMARK  105  A    between atoms: _249  and  _251
REMARK  106  A    between atoms: _251  and  _252
REMARK  107  A    between atoms: _251  and  _254
REMARK  108  A    between atoms: _254  and  _255
REMARK  109  A    between atoms: _261  and  _263
REMARK  110  A    between atoms: _263  and  _264
REMARK  111  A    between atoms: _267  and  _269
REMARK  112  A    between atoms: _269  and  _270
REMARK  113  A    between atoms: _269  and  _272
REMARK  114  A    between atoms: _272  and  _273
REMARK  115  A    between atoms: _273  and  _274
REMARK  116  A    between atoms: _276  and  _278
REMARK  117  A    between atoms: _278  and  _279
REMARK  118  A    between atoms: _278  and  _281
REMARK  119  A    between atoms: _281  and  _282
REMARK  120  A    between atoms: _282  and  _283
REMARK  121  A    between atoms: _283  and  _284
REMARK  122  A    between atoms: _284  and  _285
REMARK  123  A    between atoms: _289  and  _291
REMARK  124  A    between atoms: _291  and  _292
REMARK  125  A    between atoms: _291  and  _294
REMARK  126  A    between atoms: _294  and  _295
REMARK  127  A    between atoms: _300  and  _301
REMARK  128  A    between atoms: _303  and  _305
REMARK  129  A    between atoms: _305  and  _306
REMARK  130  A    between atoms: _305  and  _308
REMARK  131  A    between atoms: _308  and  _309
REMARK  132  A    between atoms: _314  and  _316
REMARK  133  A    between atoms: _316  and  _317
REMARK  134  A    between atoms: _316  and  _319
REMARK  135  A    between atoms: _319  and  _320
REMARK  136  A    between atoms: _323  and  _325
REMARK  137  A    between atoms: _325  and  _326
REMARK  138  A    between atoms: _325  and  _328
REMARK  139  A    between atoms: _331  and  _333
REMARK  140  A    between atoms: _333  and  _334
REMARK  141  A    between atoms: _333  and  _336
REMARK  142  A    between atoms: _336  and  _337
REMARK  143  A    between atoms: _342  and  _343
REMARK  144  A    between atoms: _345  and  _347
REMARK  145  A    between atoms: _347  and  _348
REMARK  146  A    between atoms: _347  and  _350
REMARK  147  A    between atoms: _350  and  _351
REMARK  148  A    between atoms: _351  and  _352
REMARK  149  A    between atoms: _352  and  _353
REMARK  150  A    between atoms: _362  and  _364
REMARK  151  A    between atoms: _364  and  _365
REMARK  152  A    between atoms: _364  and  _367
REMARK  153  A    between atoms: _367  and  _368
REMARK  154  A    between atoms: _373  and  _374
REMARK  155  A    between atoms: _376  and  _378
REMARK  156  A    between atoms: _378  and  _379
REMARK  157  A    between atoms: _378  and  _381
REMARK  158  A    between atoms: _381  and  _382
REMARK  159  A    between atoms: _385  and  _387
REMARK  160  A    between atoms: _387  and  _388
REMARK  161  A    between atoms: _387  and  _390
REMARK  162  A    between atoms: _390  and  _391
REMARK  163  A    between atoms: _393  and  _395
REMARK  164  A    between atoms: _395  and  _396
REMARK  165  A    between atoms: _395  and  _398
REMARK  166  A    between atoms: _398  and  _399
REMARK  167  A    between atoms: _405  and  _407
REMARK  168  A    between atoms: _407  and  _408
REMARK  169  A    between atoms: _407  and  _410
REMARK  170  A    between atoms: _410  and  _411
REMARK  171  A    between atoms: _411  and  _412
REMARK                            x       y       z     vdW  Elec       q    Type
REMARK                         _______ _______ _______ _____ _____    ______ ____
ROOT
ATOM      1  C   SER A   1      32.275   7.323 -53.628  0.00  0.00    +0.241 C 
ATOM      2  N   PHE A   2      33.223   7.761 -52.801  0.00  0.00    -0.298 N 
ATOM      3  H   PHE A   2      33.760   7.075 -52.233  0.00  0.00    +0.150 HD
ATOM      4  O   SER A   1      31.635   8.072 -54.364  0.00  0.00    -0.274 OA
ENDROOT
BRANCH   1   5
ATOM      5  CA  SER A   1      32.001   5.820 -53.638  0.00  0.00    +0.174 C 
BRANCH   5   6
ATOM      6  N   SER A   1      33.211   5.005 -53.778  0.00  0.00    -0.236 NA
ATOM      7  H   SER A   1      33.374   4.237 -53.096  0.00  0.00    +0.142 HD
ENDBRANCH   5   6
BRANCH   5   8
ATOM      8  CB  SER A   1      31.250   5.442 -52.363  0.00  0.00    +0.163 C 
BRANCH   8   9
ATOM      9  OG  SER A   1      30.259   6.413 -52.057  0.00  0.00    -0.380 OA
ATOM     10  H   SER A   1      29.785   6.149 -51.229  0.00  0.00    +0.211 HD
ENDBRANCH   8   9
ENDBRANCH   5   8
ENDBRANCH   1   5
BRANCH   2  11
ATOM     11  CA  PHE A   2      33.526   9.196 -52.675  0.00  0.00    +0.141 C 
BRANCH  11  12
ATOM     12  C   PHE A   2      34.093   9.813 -53.955  0.00  0.00    +0.227 C 
ATOM     13  O   PHE A   2      33.988  11.020 -54.156  0.00  0.00    -0.286 OA
ENDBRANCH  11  12
BRANCH  11  14
ATOM     14  CB  PHE A   2      34.454   9.463 -51.492  0.00  0.00    +0.054 C 
BRANCH  14  15
ATOM     15  CG  PHE A   2      33.735   9.633 -50.179  0.00  0.00    -0.020 A 
ATOM     16  CD2 PHE A   2      33.957  10.761 -49.398  0.00  0.00    -0.004 A 
ATOM     17  CE2 PHE A   2      33.306  10.926 -48.183  0.00  0.00    -0.000 A 
ATOM     18  CZ  PHE A   2      32.411   9.957 -47.739  0.00  0.00    -0.000 A 
ATOM     19  CE1 PHE A   2      32.173   8.826 -48.512  0.00  0.00    -0.000 A 
ATOM     20  CD1 PHE A   2      32.834   8.669 -49.725  0.00  0.00    -0.004 A 
ENDBRANCH  14  15
ENDBRANCH  11  14
ENDBRANCH   2  11
TORSDOF 8
REMARK  Name = ../refined-set-2016/2x8z/2x8z_pocket.pdb
REMARK  171 active torsions:
REMARK  status: ('A' for Active; 'I' for Inactive)
REMARK    1  A    between atoms: _1  and  _3
REMARK    2  A    between atoms: _3  and  _4
REMARK    3  A    between atoms: _3  and  _6
REMARK    4  A    between atoms: _6  and  _7
REMARK    5  A    between atoms: _7  and  _8
REMARK    6  A    between atoms: _11  and  _13
REMARK    7  A    between atoms: _13  and  _14
REMARK    8  A    between atoms: _13  and  _16
REMARK    9  A    between atoms: _16  and  _17
REMARK   10  A    between atoms: _22  and  _24
REMARK   11  A    between atoms: _24  and  _25
REMARK   12  A    between atoms: _24  and  _27
REMARK   13  A    between atoms: _27  and  _28
REMARK   14  A    between atoms: _38  and  _40
REMARK   15  A    between atoms: _40  and  _41
REMARK   16  A    between atoms: _40  and  _43
REMARK   17  A    between atoms: _43  and  _44
REMARK   18  A    between atoms: _44  and  _45
REMARK   19  A    between atoms: _50  and  _52
REMARK   20  A    between atoms: _52  and  _53
REMARK   21  A    between atoms: _52  and  _55
REMARK   22  A    between atoms: _55  and  _56
REMARK   23  A    between atoms: _56  and  _57
REMARK   24  A    between atoms: _62  and  _64
REMARK   25  A    between atoms: _64  and  _65
REMARK   26  A    between atoms: _64  and  _67
REMARK   27  A    between atoms: _69  and  _71
REMARK   28  A    between atoms: _71  and  _72
REMARK   29  A    between atoms: _71  and  _74
REMARK   30  A    between atoms: _74  and  _75
REMARK   31  A    between atoms: _80  and  _82
REMARK   32  A    between atoms: _82  and  _83
REMARK   33  A    between atoms: _86  and  _88
REMARK   34  A    between atoms: _88  and  _89
REMARK   35  A    between atoms: _88  and  _91
REMARK   36  A    between atoms: _91  and  _92
REMARK   37  A    between atoms: _94  and  _96
REMARK   38  A    between atoms: _96  and  _97
REMARK   39  A    between atoms: _100  and  _102
REMARK   40  A    between atoms: _102  and  _103
REMARK   41  A    between atoms: _102  and  _105
REMARK   42  A    between atoms: _105  and  _106
REMARK   43  A    between atoms: _106  and  _107
REMARK   44  A    between atoms: _112  and  _114
REMARK   45  A    between atoms: _114  and  _115
REMARK   46  A    between atoms: _114  and  _117
REMARK   47  A    between atoms: _117  and  _118
REMARK   48  A    between atoms: _118  and  _119
REMARK   49  A    between atoms: _124  and  _126
REMARK   50  A    between atoms: _126  and  _127
REMARK   51  A    between atoms: _126  and  _129
REMARK   52  A    between atoms: _129  and  _130
REMARK   53  A    between atoms: _136  and  _138
REMARK   54  A    between atoms: _138  and  _139
REMARK   55  A    between atoms: _138  and  _141
REMARK   56  A    between atoms: _141  and  _142
REMARK   57  A    between atoms: _145  and  _147
REMARK   58  A    between atoms: _147  and  _148
REMARK   59  A    between atoms: _147  and  _150
REMARK   60  A    between atoms: _153  and  _155
REMARK   61  A    between atoms: _155  and  _156
REMARK   62  A    between atoms: _155  and  _158
REMARK   63  A    between atoms: _158  and  _159
REMARK   64  A    between atoms: _163  and  ZN_417
REMARK   65  A    between atoms: _164  and  _166
REMARK   66  A    between atoms: _166  and  _167
REMARK   67  A    between atoms: _166  and  _169
REMARK   68  A    between atoms: _169  and  _170
REMARK   69  A    between atoms: _170  and  _171
REMARK   70  A    between atoms: _174  and  _176
REMARK   71  A    between atoms: _176  and  _177
REMARK   72  A    between atoms: _176  and  _179
REMARK   73  A    between atoms: _179  and  _180
REMARK   74  A    between atoms: _184  and  ZN_417
REMARK   75  A    between atoms: _185  and  _187
REMARK   76  A    between atoms: _187  and  _188
REMARK   77  A    between atoms: _187  and  _190
REMARK   78  A    between atoms: _190  and  _191
REMARK   79  A    between atoms: _196  and  _198
REMARK   80  A    between atoms: _198  and  _199
REMARK   81  A    between atoms: _198  and  _201
REMARK   82  A    between atoms: _201  and  _202
REMARK   83  A    between atoms: _202  and  _203
REMARK   84  A    between atoms: _203  and  _204
REMARK   85  A    between atoms: _204  and  ZN_417
REMARK   86  A    between atoms: _206  and  _208
REMARK   87  A    between atoms: _208  and  _209
REMARK   88  A    between atoms: _208  and  _211
REMARK   89  A    between atoms: _211  and  _212
REMARK   90  A    between atoms: _215  and  _217
REMARK   91  A    between atoms: _217  and  _218
REMARK   92  A    between atoms: _217  and  _220
REMARK   93  A    between atoms: _220  and  _221
REMARK   94  A    between atoms: _224  and  _226
REMARK   95  A    between atoms: _226  and  _227
REMARK   96  A    between atoms: _226  and  _229
REMARK   97  A    between atoms: _229  and  _230
REMARK   98  A    between atoms: _230  and  _231
REMARK   99  A    between atoms: _231  and  _232
REMARK  100  A    between atoms: _232  and  _233
REMARK  101  A    between atoms: _237  and  _239
REMARK  102  A    between atoms: _239  and  _240
REMARK  103  A    between atoms: _239  and  _242
REMARK  104  A    between atoms: _242  and  _243
REMARK  105  A    between atoms: _249  and  _251
REMARK  106  A    between atoms: _251  and  _252
REMARK  107  A    between atoms: _251  and  _254
REMARK  108  A    between atoms: _254  and  _255
REMARK  109  A    between atoms: _261  and  _263
REMARK  110  A    between atoms: _263  and  _264
REMARK  111  A    between atoms: _267  and  _269
REMARK  112  A    between atoms: _269  and  _270
REMARK  113  A    between atoms: _269  and  _272
REMARK  114  A    between atoms: _272  and  _273
REMARK  115  A    between atoms: _273  and  _274
REMARK  116  A    between atoms: _276  and  _278
REMARK  117  A    between atoms: _278  and  _279
REMARK  118  A    between atoms: _278  and  _281
REMARK  119  A    between atoms: _281  and  _282
REMARK  120  A    between atoms: _282  and  _283
REMARK  121  A    between atoms: _283  and  _284
REMARK  122  A    between atoms: _284  and  _285
REMARK  123  A    between atoms: _289  and  _291
REMARK  124  A    between atoms: _291  and  _292
REMARK  125  A    between atoms: _291  and  _294
REMARK  126  A    between atoms: _294  and  _295
REMARK  127  A    between atoms: _300  and  _301
REMARK  128  A    between atoms: _303  and  _305
REMARK  129  A    between atoms: _305  and  _306
REMARK  130  A    between atoms: _305  and  _308
REMARK  131  A    between atoms: _308  and  _309
REMARK  132  A    between atoms: _314  and  _316
REMARK  133  A    between atoms: _316  and  _317
REMARK  134  A    between atoms: _316  and  _319
REMARK  135  A    between atoms: _319  and  _320
REMARK  136  A    between atoms: _323  and  _325
REMARK  137  A    between atoms: _325  and  _326
REMARK  138  A    between atoms: _325  and  _328
REMARK  139  A    between atoms: _331  and  _333
REMARK  140  A    between atoms: _333  and  _334
REMARK  141  A    between atoms: _333  and  _336
REMARK  142  A    between atoms: _336  and  _337
REMARK  143  A    between atoms: _342  and  _343
REMARK  144  A    between atoms: _345  and  _347
REMARK  145  A    between atoms: _347  and  _348
REMARK  146  A    between atoms: _347  and  _350
REMARK  147  A    between atoms: _350  and  _351
REMARK  148  A    between atoms: _351  and  _352
REMARK  149  A    between atoms: _352  and  _353
REMARK  150  A    between atoms: _362  and  _364
REMARK  151  A    between atoms: _364  and  _365
REMARK  152  A    between atoms: _364  and  _367
REMARK  153  A    between atoms: _367  and  _368
REMARK  154  A    between atoms: _373  and  _374
REMARK  155  A    between atoms: _376  and  _378
REMARK  156  A    between atoms: _378  and  _379
REMARK  157  A    between atoms: _378  and  _381
REMARK  158  A    between atoms: _381  and  _382
REMARK  159  A    between atoms: _385  and  _387
REMARK  160  A    between atoms: _387  and  _388
REMARK  161  A    between atoms: _387  and  _390
REMARK  162  A    between atoms: _390  and  _391
REMARK  163  A    between atoms: _393  and  _395
REMARK  164  A    between atoms: _395  and  _396
REMARK  165  A    between atoms: _395  and  _398
REMARK  166  A    between atoms: _398  and  _399
REMARK  167  A    between atoms: _405  and  _407
REMARK  168  A    between atoms: _407  and  _408
REMARK  169  A    between atoms: _407  and  _410
REMARK  170  A    between atoms: _410  and  _411
REMARK  171  A    between atoms: _411  and  _412
REMARK                            x       y       z     vdW  Elec       q    Type
REMARK                         _______ _______ _______ _____ _____    ______ ____
ROOT
ATOM      1  CB  GLN A   1      29.227  10.020 -54.844  0.00  0.00    +0.035 C 
ENDROOT
BRANCH   1   2
ATOM      2  CA  GLN A   1      29.457   9.969 -56.361  0.00  0.00    +0.134 C 
BRANCH   2   3
ATOM      3  N   GLN A   1      30.657   9.203 -56.715  0.00  0.00    -0.239 NA
ATOM      4  H   GLN A   1      31.294   8.863 -55.966  0.00  0.00    +0.142 HD
ENDBRANCH   2   3
BRANCH   2   5
ATOM      5  C   GLN A   1      29.449  11.380 -56.976  0.00  0.00    +0.224 C 
ATOM      6  O   GLN A   1      28.378  11.946 -57.225  0.00  0.00    -0.287 OA
ENDBRANCH   2   5
ENDBRANCH   1   2
BRANCH   1   7
ATOM      7  CG  GLN A   1      30.196  10.910 -54.057  0.00  0.00    +0.087 C 
BRANCH   7   8
ATOM      8  CD  GLN A   1      29.978  10.826 -52.553  0.00  0.00    +0.219 C 
ATOM      9  OE1 GLN A   1      29.726  11.835 -51.900  0.00  0.00    -0.275 OA
ATOM     10  NE2 GLN A   1      30.056   9.615 -52.000  0.00  0.00    -0.329 N 
ATOM     11 HE21 GLN A   1      29.901   9.499 -50.978  0.00  0.00    +0.145 HD
ATOM     12 HE22 GLN A   1      30.272   8.787 -52.591  0.00  0.00    +0.145 HD
ENDBRANCH   7   8
ENDBRANCH   1   7
TORSDOF 5
REMARK  Name = ../refined-set-2016/2x8z/2x8z_pocket.pdb
REMARK  171 active torsions:
REMARK  status: ('A' for Active; 'I' for Inactive)
REMARK    1  A    between atoms: _1  and  _3
REMARK    2  A    between atoms: _3  and  _4
REMARK    3  A    between atoms: _3  and  _6
REMARK    4  A    between atoms: _6  and  _7
REMARK    5  A    between atoms: _7  and  _8
REMARK    6  A    between atoms: _11  and  _13
REMARK    7  A    between atoms: _13  and  _14
REMARK    8  A    between atoms: _13  and  _16
REMARK    9  A    between atoms: _16  and  _17
REMARK   10  A    between atoms: _22  and  _24
REMARK   11  A    between atoms: _24  and  _25
REMARK   12  A    between atoms: _24  and  _27
REMARK   13  A    between atoms: _27  and  _28
REMARK   14  A    between atoms: _38  and  _40
REMARK   15  A    between atoms: _40  and  _41
REMARK   16  A    between atoms: _40  and  _43
REMARK   17  A    between atoms: _43  and  _44
REMARK   18  A    between atoms: _44  and  _45
REMARK   19  A    between atoms: _50  and  _52
REMARK   20  A    between atoms: _52  and  _53
REMARK   21  A    between atoms: _52  and  _55
REMARK   22  A    between atoms: _55  and  _56
REMARK   23  A    between atoms: _56  and  _57
REMARK   24  A    between atoms: _62  and  _64
REMARK   25  A    between atoms: _64  and  _65
REMARK   26  A    between atoms: _64  and  _67
REMARK   27  A    between atoms: _69  and  _71
REMARK   28  A    between atoms: _71  and  _72
REMARK   29  A    between atoms: _71  and  _74
REMARK   30  A    between atoms: _74  and  _75
REMARK   31  A    between atoms: _80  and  _82
REMARK   32  A    between atoms: _82  and  _83
REMARK   33  A    between atoms: _86  and  _88
REMARK   34  A    between atoms: _88  and  _89
REMARK   35  A    between atoms: _88  and  _91
REMARK   36  A    between atoms: _91  and  _92
REMARK   37  A    between atoms: _94  and  _96
REMARK   38  A    between atoms: _96  and  _97
REMARK   39  A    between atoms: _100  and  _102
REMARK   40  A    between atoms: _102  and  _103
REMARK   41  A    between atoms: _102  and  _105
REMARK   42  A    between atoms: _105  and  _106
REMARK   43  A    between atoms: _106  and  _107
REMARK   44  A    between atoms: _112  and  _114
REMARK   45  A    between atoms: _114  and  _115
REMARK   46  A    between atoms: _114  and  _117
REMARK   47  A    between atoms: _117  and  _118
REMARK   48  A    between atoms: _118  and  _119
REMARK   49  A    between atoms: _124  and  _126
REMARK   50  A    between atoms: _126  and  _127
REMARK   51  A    between atoms: _126  and  _129
REMARK   52  A    between atoms: _129  and  _130
REMARK   53  A    between atoms: _136  and  _138
REMARK   54  A    between atoms: _138  and  _139
REMARK   55  A    between atoms: _138  and  _141
REMARK   56  A    between atoms: _141  and  _142
REMARK   57  A    between atoms: _145  and  _147
REMARK   58  A    between atoms: _147  and  _148
REMARK   59  A    between atoms: _147  and  _150
REMARK   60  A    between atoms: _153  and  _155
REMARK   61  A    between atoms: _155  and  _156
REMARK   62  A    between atoms: _155  and  _158
REMARK   63  A    between atoms: _158  and  _159
REMARK   64  A    between atoms: _163  and  ZN_417
REMARK   65  A    between atoms: _164  and  _166
REMARK   66  A    between atoms: _166  and  _167
REMARK   67  A    between atoms: _166  and  _169
REMARK   68  A    between atoms: _169  and  _170
REMARK   69  A    between atoms: _170  and  _171
REMARK   70  A    between atoms: _174  and  _176
REMARK   71  A    between atoms: _176  and  _177
REMARK   72  A    between atoms: _176  and  _179
REMARK   73  A    between atoms: _179  and  _180
REMARK   74  A    between atoms: _184  and  ZN_417
REMARK   75  A    between atoms: _185  and  _187
REMARK   76  A    between atoms: _187  and  _188
REMARK   77  A    between atoms: _187  and  _190
REMARK   78  A    between atoms: _190  and  _191
REMARK   79  A    between atoms: _196  and  _198
REMARK   80  A    between atoms: _198  and  _199
REMARK   81  A    between atoms: _198  and  _201
REMARK   82  A    between atoms: _201  and  _202
REMARK   83  A    between atoms: _202  and  _203
REMARK   84  A    between atoms: _203  and  _204
REMARK   85  A    between atoms: _204  and  ZN_417
REMARK   86  A    between atoms: _206  and  _208
REMARK   87  A    between atoms: _208  and  _209
REMARK   88  A    between atoms: _208  and  _211
REMARK   89  A    between atoms: _211  and  _212
REMARK   90  A    between atoms: _215  and  _217
REMARK   91  A    between atoms: _217  and  _218
REMARK   92  A    between atoms: _217  and  _220
REMARK   93  A    between atoms: _220  and  _221
REMARK   94  A    between atoms: _224  and  _226
REMARK   95  A    between atoms: _226  and  _227
REMARK   96  A    between atoms: _226  and  _229
REMARK   97  A    between atoms: _229  and  _230
REMARK   98  A    between atoms: _230  and  _231
REMARK   99  A    between atoms: _231  and  _232
REMARK  100  A    between atoms: _232  and  _233
REMARK  101  A    between atoms: _237  and  _239
REMARK  102  A    between atoms: _239  and  _240
REMARK  103  A    between atoms: _239  and  _242
REMARK  104  A    between atoms: _242  and  _243
REMARK  105  A    between atoms: _249  and  _251
REMARK  106  A    between atoms: _251  and  _252
REMARK  107  A    between atoms: _251  and  _254
REMARK  108  A    between atoms: _254  and  _255
REMARK  109  A    between atoms: _261  and  _263
REMARK  110  A    between atoms: _263  and  _264
REMARK  111  A    between atoms: _267  and  _269
REMARK  112  A    between atoms: _269  and  _270
REMARK  113  A    between atoms: _269  and  _272
REMARK  114  A    between atoms: _272  and  _273
REMARK  115  A    between atoms: _273  and  _274
REMARK  116  A    between atoms: _276  and  _278
REMARK  117  A    between atoms: _278  and  _279
REMARK  118  A    between atoms: _278  and  _281
REMARK  119  A    between atoms: _281  and  _282
REMARK  120  A    between atoms: _282  and  _283
REMARK  121  A    between atoms: _283  and  _284
REMARK  122  A    between atoms: _284  and  _285
REMARK  123  A    between atoms: _289  and  _291
REMARK  124  A    between atoms: _291  and  _292
REMARK  125  A    between atoms: _291  and  _294
REMARK  126  A    between atoms: _294  and  _295
REMARK  127  A    between atoms: _300  and  _301
REMARK  128  A    between atoms: _303  and  _305
REMARK  129  A    between atoms: _305  and  _306
REMARK  130  A    between atoms: _305  and  _308
REMARK  131  A    between atoms: _308  and  _309
REMARK  132  A    between atoms: _314  and  _316
REMARK  133  A    between atoms: _316  and  _317
REMARK  134  A    between atoms: _316  and  _319
REMARK  135  A    between atoms: _319  and  _320
REMARK  136  A    between atoms: _323  and  _325
REMARK  137  A    between atoms: _325  and  _326
REMARK  138  A    between atoms: _325  and  _328
REMARK  139  A    between atoms: _331  and  _333
REMARK  140  A    between atoms: _333  and  _334
REMARK  141  A    between atoms: _333  and  _336
REMARK  142  A    between atoms: _336  and  _337
REMARK  143  A    between atoms: _342  and  _343
REMARK  144  A    between atoms: _345  and  _347
REMARK  145  A    between atoms: _347  and  _348
REMARK  146  A    between atoms: _347  and  _350
REMARK  147  A    between atoms: _350  and  _351
REMARK  148  A    between atoms: _351  and  _352
REMARK  149  A    between atoms: _352  and  _353
REMARK  150  A    between atoms: _362  and  _364
REMARK  151  A    between atoms: _364  and  _365
REMARK  152  A    between atoms: _364  and  _367
REMARK  153  A    between atoms: _367  and  _368
REMARK  154  A    between atoms: _373  and  _374
REMARK  155  A    between atoms: _376  and  _378
REMARK  156  A    between atoms: _378  and  _379
REMARK  157  A    between atoms: _378  and  _381
REMARK  158  A    between atoms: _381  and  _382
REMARK  159  A    between atoms: _385  and  _387
REMARK  160  A    between atoms: _387  and  _388
REMARK  161  A    between atoms: _387  and  _390
REMARK  162  A    between atoms: _390  and  _391
REMARK  163  A    between atoms: _393  and  _395
REMARK  164  A    between atoms: _395  and  _396
REMARK  165  A    between atoms: _395  and  _398
REMARK  166  A    between atoms: _398  and  _399
REMARK  167  A    between atoms: _405  and  _407
REMARK  168  A    between atoms: _407  and  _408
REMARK  169  A    between atoms: _407  and  _410
REMARK  170  A    between atoms: _410  and  _411
REMARK  171  A    between atoms: _411  and  _412
REMARK                            x       y       z     vdW  Elec       q    Type
REMARK                         _______ _______ _______ _____ _____    ______ ____
ROOT
ATOM      1  O   HOH     1      27.478   8.656 -37.678  0.00  0.00    +0.000 OA
ENDROOT
TORSDOF 0
REMARK  Name = ../refined-set-2016/2x8z/2x8z_pocket.pdb
REMARK  171 active torsions:
REMARK  status: ('A' for Active; 'I' for Inactive)
REMARK    1  A    between atoms: _1  and  _3
REMARK    2  A    between atoms: _3  and  _4
REMARK    3  A    between atoms: _3  and  _6
REMARK    4  A    between atoms: _6  and  _7
REMARK    5  A    between atoms: _7  and  _8
REMARK    6  A    between atoms: _11  and  _13
REMARK    7  A    between atoms: _13  and  _14
REMARK    8  A    between atoms: _13  and  _16
REMARK    9  A    between atoms: _16  and  _17
REMARK   10  A    between atoms: _22  and  _24
REMARK   11  A    between atoms: _24  and  _25
REMARK   12  A    between atoms: _24  and  _27
REMARK   13  A    between atoms: _27  and  _28
REMARK   14  A    between atoms: _38  and  _40
REMARK   15  A    between atoms: _40  and  _41
REMARK   16  A    between atoms: _40  and  _43
REMARK   17  A    between atoms: _43  and  _44
REMARK   18  A    between atoms: _44  and  _45
REMARK   19  A    between atoms: _50  and  _52
REMARK   20  A    between atoms: _52  and  _53
REMARK   21  A    between atoms: _52  and  _55
REMARK   22  A    between atoms: _55  and  _56
REMARK   23  A    between atoms: _56  and  _57
REMARK   24  A    between atoms: _62  and  _64
REMARK   25  A    between atoms: _64  and  _65
REMARK   26  A    between atoms: _64  and  _67
REMARK   27  A    between atoms: _69  and  _71
REMARK   28  A    between atoms: _71  and  _72
REMARK   29  A    between atoms: _71  and  _74
REMARK   30  A    between atoms: _74  and  _75
REMARK   31  A    between atoms: _80  and  _82
REMARK   32  A    between atoms: _82  and  _83
REMARK   33  A    between atoms: _86  and  _88
REMARK   34  A    between atoms: _88  and  _89
REMARK   35  A    between atoms: _88  and  _91
REMARK   36  A    between atoms: _91  and  _92
REMARK   37  A    between atoms: _94  and  _96
REMARK   38  A    between atoms: _96  and  _97
REMARK   39  A    between atoms: _100  and  _102
REMARK   40  A    between atoms: _102  and  _103
REMARK   41  A    between atoms: _102  and  _105
REMARK   42  A    between atoms: _105  and  _106
REMARK   43  A    between atoms: _106  and  _107
REMARK   44  A    between atoms: _112  and  _114
REMARK   45  A    between atoms: _114  and  _115
REMARK   46  A    between atoms: _114  and  _117
REMARK   47  A    between atoms: _117  and  _118
REMARK   48  A    between atoms: _118  and  _119
REMARK   49  A    between atoms: _124  and  _126
REMARK   50  A    between atoms: _126  and  _127
REMARK   51  A    between atoms: _126  and  _129
REMARK   52  A    between atoms: _129  and  _130
REMARK   53  A    between atoms: _136  and  _138
REMARK   54  A    between atoms: _138  and  _139
REMARK   55  A    between atoms: _138  and  _141
REMARK   56  A    between atoms: _141  and  _142
REMARK   57  A    between atoms: _145  and  _147
REMARK   58  A    between atoms: _147  and  _148
REMARK   59  A    between atoms: _147  and  _150
REMARK   60  A    between atoms: _153  and  _155
REMARK   61  A    between atoms: _155  and  _156
REMARK   62  A    between atoms: _155  and  _158
REMARK   63  A    between atoms: _158  and  _159
REMARK   64  A    between atoms: _163  and  ZN_417
REMARK   65  A    between atoms: _164  and  _166
REMARK   66  A    between atoms: _166  and  _167
REMARK   67  A    between atoms: _166  and  _169
REMARK   68  A    between atoms: _169  and  _170
REMARK   69  A    between atoms: _170  and  _171
REMARK   70  A    between atoms: _174  and  _176
REMARK   71  A    between atoms: _176  and  _177
REMARK   72  A    between atoms: _176  and  _179
REMARK   73  A    between atoms: _179  and  _180
REMARK   74  A    between atoms: _184  and  ZN_417
REMARK   75  A    between atoms: _185  and  _187
REMARK   76  A    between atoms: _187  and  _188
REMARK   77  A    between atoms: _187  and  _190
REMARK   78  A    between atoms: _190  and  _191
REMARK   79  A    between atoms: _196  and  _198
REMARK   80  A    between atoms: _198  and  _199
REMARK   81  A    between atoms: _198  and  _201
REMARK   82  A    between atoms: _201  and  _202
REMARK   83  A    between atoms: _202  and  _203
REMARK   84  A    between atoms: _203  and  _204
REMARK   85  A    between atoms: _204  and  ZN_417
REMARK   86  A    between atoms: _206  and  _208
REMARK   87  A    between atoms: _208  and  _209
REMARK   88  A    between atoms: _208  and  _211
REMARK   89  A    between atoms: _211  and  _212
REMARK   90  A    between atoms: _215  and  _217
REMARK   91  A    between atoms: _217  and  _218
REMARK   92  A    between atoms: _217  and  _220
REMARK   93  A    between atoms: _220  and  _221
REMARK   94  A    between atoms: _224  and  _226
REMARK   95  A    between atoms: _226  and  _227
REMARK   96  A    between atoms: _226  and  _229
REMARK   97  A    between atoms: _229  and  _230
REMARK   98  A    between atoms: _230  and  _231
REMARK   99  A    between atoms: _231  and  _232
REMARK  100  A    between atoms: _232  and  _233
REMARK  101  A    between atoms: _237  and  _239
REMARK  102  A    between atoms: _239  and  _240
REMARK  103  A    between atoms: _239  and  _242
REMARK  104  A    between atoms: _242  and  _243
REMARK  105  A    between atoms: _249  and  _251
REMARK  106  A    between atoms: _251  and  _252
REMARK  107  A    between atoms: _251  and  _254
REMARK  108  A    between atoms: _254  and  _255
REMARK  109  A    between atoms: _261  and  _263
REMARK  110  A    between atoms: _263  and  _264
REMARK  111  A    between atoms: _267  and  _269
REMARK  112  A    between atoms: _269  and  _270
REMARK  113  A    between atoms: _269  and  _272
REMARK  114  A    between atoms: _272  and  _273
REMARK  115  A    between atoms: _273  and  _274
REMARK  116  A    between atoms: _276  and  _278
REMARK  117  A    between atoms: _278  and  _279
REMARK  118  A    between atoms: _278  and  _281
REMARK  119  A    between atoms: _281  and  _282
REMARK  120  A    between atoms: _282  and  _283
REMARK  121  A    between atoms: _283  and  _284
REMARK  122  A    between atoms: _284  and  _285
REMARK  123  A    between atoms: _289  and  _291
REMARK  124  A    between atoms: _291  and  _292
REMARK  125  A    between atoms: _291  and  _294
REMARK  126  A    between atoms: _294  and  _295
REMARK  127  A    between atoms: _300  and  _301
REMARK  128  A    between atoms: _303  and  _305
REMARK  129  A    between atoms: _305  and  _306
REMARK  130  A    between atoms: _305  and  _308
REMARK  131  A    between atoms: _308  and  _309
REMARK  132  A    between atoms: _314  and  _316
REMARK  133  A    between atoms: _316  and  _317
REMARK  134  A    between atoms: _316  and  _319
REMARK  135  A    between atoms: _319  and  _320
REMARK  136  A    between atoms: _323  and  _325
REMARK  137  A    between atoms: _325  and  _326
REMARK  138  A    between atoms: _325  and  _328
REMARK  139  A    between atoms: _331  and  _333
REMARK  140  A    between atoms: _333  and  _334
REMARK  141  A    between atoms: _333  and  _336
REMARK  142  A    between atoms: _336  and  _337
REMARK  143  A    between atoms: _342  and  _343
REMARK  144  A    between atoms: _345  and  _347
REMARK  145  A    between atoms: _347  and  _348
REMARK  146  A    between atoms: _347  and  _350
REMARK  147  A    between atoms: _350  and  _351
REMARK  148  A    between atoms: _351  and  _352
REMARK  149  A    between atoms: _352  and  _353
REMARK  150  A    between atoms: _362  and  _364
REMARK  151  A    between atoms: _364  and  _365
REMARK  152  A    between atoms: _364  and  _367
REMARK  153  A    between atoms: _367  and  _368
REMARK  154  A    between atoms: _373  and  _374
REMARK  155  A    between atoms: _376  and  _378
REMARK  156  A    between atoms: _378  and  _379
REMARK  157  A    between atoms: _378  and  _381
REMARK  158  A    between atoms: _381  and  _382
REMARK  159  A    between atoms: _385  and  _387
REMARK  160  A    between atoms: _387  and  _388
REMARK  161  A    between atoms: _387  and  _390
REMARK  162  A    between atoms: _390  and  _391
REMARK  163  A    between atoms: _393  and  _395
REMARK  164  A    between atoms: _395  and  _396
REMARK  165  A    between atoms: _395  and  _398
REMARK  166  A    between atoms: _398  and  _399
REMARK  167  A    between atoms: _405  and  _407
REMARK  168  A    between atoms: _407  and  _408
REMARK  169  A    between atoms: _407  and  _410
REMARK  170  A    between atoms: _410  and  _411
REMARK  171  A    between atoms: _411  and  _412
REMARK                            x       y       z     vdW  Elec       q    Type
REMARK                         _______ _______ _______ _____ _____    ______ ____
ROOT
ATOM      1  O   HOH     1      26.687   4.563 -34.983  0.00  0.00    +0.000 OA
ENDROOT
TORSDOF 0
REMARK  Name = ../refined-set-2016/2x8z/2x8z_pocket.pdb
REMARK  171 active torsions:
REMARK  status: ('A' for Active; 'I' for Inactive)
REMARK    1  A    between atoms: _1  and  _3
REMARK    2  A    between atoms: _3  and  _4
REMARK    3  A    between atoms: _3  and  _6
REMARK    4  A    between atoms: _6  and  _7
REMARK    5  A    between atoms: _7  and  _8
REMARK    6  A    between atoms: _11  and  _13
REMARK    7  A    between atoms: _13  and  _14
REMARK    8  A    between atoms: _13  and  _16
REMARK    9  A    between atoms: _16  and  _17
REMARK   10  A    between atoms: _22  and  _24
REMARK   11  A    between atoms: _24  and  _25
REMARK   12  A    between atoms: _24  and  _27
REMARK   13  A    between atoms: _27  and  _28
REMARK   14  A    between atoms: _38  and  _40
REMARK   15  A    between atoms: _40  and  _41
REMARK   16  A    between atoms: _40  and  _43
REMARK   17  A    between atoms: _43  and  _44
REMARK   18  A    between atoms: _44  and  _45
REMARK   19  A    between atoms: _50  and  _52
REMARK   20  A    between atoms: _52  and  _53
REMARK   21  A    between atoms: _52  and  _55
REMARK   22  A    between atoms: _55  and  _56
REMARK   23  A    between atoms: _56  and  _57
REMARK   24  A    between atoms: _62  and  _64
REMARK   25  A    between atoms: _64  and  _65
REMARK   26  A    between atoms: _64  and  _67
REMARK   27  A    between atoms: _69  and  _71
REMARK   28  A    between atoms: _71  and  _72
REMARK   29  A    between atoms: _71  and  _74
REMARK   30  A    between atoms: _74  and  _75
REMARK   31  A    between atoms: _80  and  _82
REMARK   32  A    between atoms: _82  and  _83
REMARK   33  A    between atoms: _86  and  _88
REMARK   34  A    between atoms: _88  and  _89
REMARK   35  A    between atoms: _88  and  _91
REMARK   36  A    between atoms: _91  and  _92
REMARK   37  A    between atoms: _94  and  _96
REMARK   38  A    between atoms: _96  and  _97
REMARK   39  A    between atoms: _100  and  _102
REMARK   40  A    between atoms: _102  and  _103
REMARK   41  A    between atoms: _102  and  _105
REMARK   42  A    between atoms: _105  and  _106
REMARK   43  A    between atoms: _106  and  _107
REMARK   44  A    between atoms: _112  and  _114
REMARK   45  A    between atoms: _114  and  _115
REMARK   46  A    between atoms: _114  and  _117
REMARK   47  A    between atoms: _117  and  _118
REMARK   48  A    between atoms: _118  and  _119
REMARK   49  A    between atoms: _124  and  _126
REMARK   50  A    between atoms: _126  and  _127
REMARK   51  A    between atoms: _126  and  _129
REMARK   52  A    between atoms: _129  and  _130
REMARK   53  A    between atoms: _136  and  _138
REMARK   54  A    between atoms: _138  and  _139
REMARK   55  A    between atoms: _138  and  _141
REMARK   56  A    between atoms: _141  and  _142
REMARK   57  A    between atoms: _145  and  _147
REMARK   58  A    between atoms: _147  and  _148
REMARK   59  A    between atoms: _147  and  _150
REMARK   60  A    between atoms: _153  and  _155
REMARK   61  A    between atoms: _155  and  _156
REMARK   62  A    between atoms: _155  and  _158
REMARK   63  A    between atoms: _158  and  _159
REMARK   64  A    between atoms: _163  and  ZN_417
REMARK   65  A    between atoms: _164  and  _166
REMARK   66  A    between atoms: _166  and  _167
REMARK   67  A    between atoms: _166  and  _169
REMARK   68  A    between atoms: _169  and  _170
REMARK   69  A    between atoms: _170  and  _171
REMARK   70  A    between atoms: _174  and  _176
REMARK   71  A    between atoms: _176  and  _177
REMARK   72  A    between atoms: _176  and  _179
REMARK   73  A    between atoms: _179  and  _180
REMARK   74  A    between atoms: _184  and  ZN_417
REMARK   75  A    between atoms: _185  and  _187
REMARK   76  A    between atoms: _187  and  _188
REMARK   77  A    between atoms: _187  and  _190
REMARK   78  A    between atoms: _190  and  _191
REMARK   79  A    between atoms: _196  and  _198
REMARK   80  A    between atoms: _198  and  _199
REMARK   81  A    between atoms: _198  and  _201
REMARK   82  A    between atoms: _201  and  _202
REMARK   83  A    between atoms: _202  and  _203
REMARK   84  A    between atoms: _203  and  _204
REMARK   85  A    between atoms: _204  and  ZN_417
REMARK   86  A    between atoms: _206  and  _208
REMARK   87  A    between atoms: _208  and  _209
REMARK   88  A    between atoms: _208  and  _211
REMARK   89  A    between atoms: _211  and  _212
REMARK   90  A    between atoms: _215  and  _217
REMARK   91  A    between atoms: _217  and  _218
REMARK   92  A    between atoms: _217  and  _220
REMARK   93  A    between atoms: _220  and  _221
REMARK   94  A    between atoms: _224  and  _226
REMARK   95  A    between atoms: _226  and  _227
REMARK   96  A    between atoms: _226  and  _229
REMARK   97  A    between atoms: _229  and  _230
REMARK   98  A    between atoms: _230  and  _231
REMARK   99  A    between atoms: _231  and  _232
REMARK  100  A    between atoms: _232  and  _233
REMARK  101  A    between atoms: _237  and  _239
REMARK  102  A    between atoms: _239  and  _240
REMARK  103  A    between atoms: _239  and  _242
REMARK  104  A    between atoms: _242  and  _243
REMARK  105  A    between atoms: _249  and  _251
REMARK  106  A    between atoms: _251  and  _252
REMARK  107  A    between atoms: _251  and  _254
REMARK  108  A    between atoms: _254  and  _255
REMARK  109  A    between atoms: _261  and  _263
REMARK  110  A    between atoms: _263  and  _264
REMARK  111  A    between atoms: _267  and  _269
REMARK  112  A    between atoms: _269  and  _270
REMARK  113  A    between atoms: _269  and  _272
REMARK  114  A    between atoms: _272  and  _273
REMARK  115  A    between atoms: _273  and  _274
REMARK  116  A    between atoms: _276  and  _278
REMARK  117  A    between atoms: _278  and  _279
REMARK  118  A    between atoms: _278  and  _281
REMARK  119  A    between atoms: _281  and  _282
REMARK  120  A    between atoms: _282  and  _283
REMARK  121  A    between atoms: _283  and  _284
REMARK  122  A    between atoms: _284  and  _285
REMARK  123  A    between atoms: _289  and  _291
REMARK  124  A    between atoms: _291  and  _292
REMARK  125  A    between atoms: _291  and  _294
REMARK  126  A    between atoms: _294  and  _295
REMARK  127  A    between atoms: _300  and  _301
REMARK  128  A    between atoms: _303  and  _305
REMARK  129  A    between atoms: _305  and  _306
REMARK  130  A    between atoms: _305  and  _308
REMARK  131  A    between atoms: _308  and  _309
REMARK  132  A    between atoms: _314  and  _316
REMARK  133  A    between atoms: _316  and  _317
REMARK  134  A    between atoms: _316  and  _319
REMARK  135  A    between atoms: _319  and  _320
REMARK  136  A    between atoms: _323  and  _325
REMARK  137  A    between atoms: _325  and  _326
REMARK  138  A    between atoms: _325  and  _328
REMARK  139  A    between atoms: _331  and  _333
REMARK  140  A    between atoms: _333  and  _334
REMARK  141  A    between atoms: _333  and  _336
REMARK  142  A    between atoms: _336  and  _337
REMARK  143  A    between atoms: _342  and  _343
REMARK  144  A    between atoms: _345  and  _347
REMARK  145  A    between atoms: _347  and  _348
REMARK  146  A    between atoms: _347  and  _350
REMARK  147  A    between atoms: _350  and  _351
REMARK  148  A    between atoms: _351  and  _352
REMARK  149  A    between atoms: _352  and  _353
REMARK  150  A    between atoms: _362  and  _364
REMARK  151  A    between atoms: _364  and  _365
REMARK  152  A    between atoms: _364  and  _367
REMARK  153  A    between atoms: _367  and  _368
REMARK  154  A    between atoms: _373  and  _374
REMARK  155  A    between atoms: _376  and  _378
REMARK  156  A    between atoms: _378  and  _379
REMARK  157  A    between atoms: _378  and  _381
REMARK  158  A    between atoms: _381  and  _382
REMARK  159  A    between atoms: _385  and  _387
REMARK  160  A    between atoms: _387  and  _388
REMARK  161  A    between atoms: _387  and  _390
REMARK  162  A    between atoms: _390  and  _391
REMARK  163  A    between atoms: _393  and  _395
REMARK  164  A    between atoms: _395  and  _396
REMARK  165  A    between atoms: _395  and  _398
REMARK  166  A    between atoms: _398  and  _399
REMARK  167  A    between atoms: _405  and  _407
REMARK  168  A    between atoms: _407  and  _408
REMARK  169  A    between atoms: _407  and  _410
REMARK  170  A    between atoms: _410  and  _411
REMARK  171  A    between atoms: _411  and  _412
REMARK                            x       y       z     vdW  Elec       q    Type
REMARK                         _______ _______ _______ _____ _____    ______ ____
ROOT
ATOM      1  O   HOH     1      30.632   9.174 -36.079  0.00  0.00    +0.000 OA
ENDROOT
TORSDOF 0
REMARK  Name = ../refined-set-2016/2x8z/2x8z_pocket.pdb
REMARK  171 active torsions:
REMARK  status: ('A' for Active; 'I' for Inactive)
REMARK    1  A    between atoms: _1  and  _3
REMARK    2  A    between atoms: _3  and  _4
REMARK    3  A    between atoms: _3  and  _6
REMARK    4  A    between atoms: _6  and  _7
REMARK    5  A    between atoms: _7  and  _8
REMARK    6  A    between atoms: _11  and  _13
REMARK    7  A    between atoms: _13  and  _14
REMARK    8  A    between atoms: _13  and  _16
REMARK    9  A    between atoms: _16  and  _17
REMARK   10  A    between atoms: _22  and  _24
REMARK   11  A    between atoms: _24  and  _25
REMARK   12  A    between atoms: _24  and  _27
REMARK   13  A    between atoms: _27  and  _28
REMARK   14  A    between atoms: _38  and  _40
REMARK   15  A    between atoms: _40  and  _41
REMARK   16  A    between atoms: _40  and  _43
REMARK   17  A    between atoms: _43  and  _44
REMARK   18  A    between atoms: _44  and  _45
REMARK   19  A    between atoms: _50  and  _52
REMARK   20  A    between atoms: _52  and  _53
REMARK   21  A    between atoms: _52  and  _55
REMARK   22  A    between atoms: _55  and  _56
REMARK   23  A    between atoms: _56  and  _57
REMARK   24  A    between atoms: _62  and  _64
REMARK   25  A    between atoms: _64  and  _65
REMARK   26  A    between atoms: _64  and  _67
REMARK   27  A    between atoms: _69  and  _71
REMARK   28  A    between atoms: _71  and  _72
REMARK   29  A    between atoms: _71  and  _74
REMARK   30  A    between atoms: _74  and  _75
REMARK   31  A    between atoms: _80  and  _82
REMARK   32  A    between atoms: _82  and  _83
REMARK   33  A    between atoms: _86  and  _88
REMARK   34  A    between atoms: _88  and  _89
REMARK   35  A    between atoms: _88  and  _91
REMARK   36  A    between atoms: _91  and  _92
REMARK   37  A    between atoms: _94  and  _96
REMARK   38  A    between atoms: _96  and  _97
REMARK   39  A    between atoms: _100  and  _102
REMARK   40  A    between atoms: _102  and  _103
REMARK   41  A    between atoms: _102  and  _105
REMARK   42  A    between atoms: _105  and  _106
REMARK   43  A    between atoms: _106  and  _107
REMARK   44  A    between atoms: _112  and  _114
REMARK   45  A    between atoms: _114  and  _115
REMARK   46  A    between atoms: _114  and  _117
REMARK   47  A    between atoms: _117  and  _118
REMARK   48  A    between atoms: _118  and  _119
REMARK   49  A    between atoms: _124  and  _126
REMARK   50  A    between atoms: _126  and  _127
REMARK   51  A    between atoms: _126  and  _129
REMARK   52  A    between atoms: _129  and  _130
REMARK   53  A    between atoms: _136  and  _138
REMARK   54  A    between atoms: _138  and  _139
REMARK   55  A    between atoms: _138  and  _141
REMARK   56  A    between atoms: _141  and  _142
REMARK   57  A    between atoms: _145  and  _147
REMARK   58  A    between atoms: _147  and  _148
REMARK   59  A    between atoms: _147  and  _150
REMARK   60  A    between atoms: _153  and  _155
REMARK   61  A    between atoms: _155  and  _156
REMARK   62  A    between atoms: _155  and  _158
REMARK   63  A    between atoms: _158  and  _159
REMARK   64  A    between atoms: _163  and  ZN_417
REMARK   65  A    between atoms: _164  and  _166
REMARK   66  A    between atoms: _166  and  _167
REMARK   67  A    between atoms: _166  and  _169
REMARK   68  A    between atoms: _169  and  _170
REMARK   69  A    between atoms: _170  and  _171
REMARK   70  A    between atoms: _174  and  _176
REMARK   71  A    between atoms: _176  and  _177
REMARK   72  A    between atoms: _176  and  _179
REMARK   73  A    between atoms: _179  and  _180
REMARK   74  A    between atoms: _184  and  ZN_417
REMARK   75  A    between atoms: _185  and  _187
REMARK   76  A    between atoms: _187  and  _188
REMARK   77  A    between atoms: _187  and  _190
REMARK   78  A    between atoms: _190  and  _191
REMARK   79  A    between atoms: _196  and  _198
REMARK   80  A    between atoms: _198  and  _199
REMARK   81  A    between atoms: _198  and  _201
REMARK   82  A    between atoms: _201  and  _202
REMARK   83  A    between atoms: _202  and  _203
REMARK   84  A    between atoms: _203  and  _204
REMARK   85  A    between atoms: _204  and  ZN_417
REMARK   86  A    between atoms: _206  and  _208
REMARK   87  A    between atoms: _208  and  _209
REMARK   88  A    between atoms: _208  and  _211
REMARK   89  A    between atoms: _211  and  _212
REMARK   90  A    between atoms: _215  and  _217
REMARK   91  A    between atoms: _217  and  _218
REMARK   92  A    between atoms: _217  and  _220
REMARK   93  A    between atoms: _220  and  _221
REMARK   94  A    between atoms: _224  and  _226
REMARK   95  A    between atoms: _226  and  _227
REMARK   96  A    between atoms: _226  and  _229
REMARK   97  A    between atoms: _229  and  _230
REMARK   98  A    between atoms: _230  and  _231
REMARK   99  A    between atoms: _231  and  _232
REMARK  100  A    between atoms: _232  and  _233
REMARK  101  A    between atoms: _237  and  _239
REMARK  102  A    between atoms: _239  and  _240
REMARK  103  A    between atoms: _239  and  _242
REMARK  104  A    between atoms: _242  and  _243
REMARK  105  A    between atoms: _249  and  _251
REMARK  106  A    between atoms: _251  and  _252
REMARK  107  A    between atoms: _251  and  _254
REMARK  108  A    between atoms: _254  and  _255
REMARK  109  A    between atoms: _261  and  _263
REMARK  110  A    between atoms: _263  and  _264
REMARK  111  A    between atoms: _267  and  _269
REMARK  112  A    between atoms: _269  and  _270
REMARK  113  A    between atoms: _269  and  _272
REMARK  114  A    between atoms: _272  and  _273
REMARK  115  A    between atoms: _273  and  _274
REMARK  116  A    between atoms: _276  and  _278
REMARK  117  A    between atoms: _278  and  _279
REMARK  118  A    between atoms: _278  and  _281
REMARK  119  A    between atoms: _281  and  _282
REMARK  120  A    between atoms: _282  and  _283
REMARK  121  A    between atoms: _283  and  _284
REMARK  122  A    between atoms: _284  and  _285
REMARK  123  A    between atoms: _289  and  _291
REMARK  124  A    between atoms: _291  and  _292
REMARK  125  A    between atoms: _291  and  _294
REMARK  126  A    between atoms: _294  and  _295
REMARK  127  A    between atoms: _300  and  _301
REMARK  128  A    between atoms: _303  and  _305
REMARK  129  A    between atoms: _305  and  _306
REMARK  130  A    between atoms: _305  and  _308
REMARK  131  A    between atoms: _308  and  _309
REMARK  132  A    between atoms: _314  and  _316
REMARK  133  A    between atoms: _316  and  _317
REMARK  134  A    between atoms: _316  and  _319
REMARK  135  A    between atoms: _319  and  _320
REMARK  136  A    between atoms: _323  and  _325
REMARK  137  A    between atoms: _325  and  _326
REMARK  138  A    between atoms: _325  and  _328
REMARK  139  A    between atoms: _331  and  _333
REMARK  140  A    between atoms: _333  and  _334
REMARK  141  A    between atoms: _333  and  _336
REMARK  142  A    between atoms: _336  and  _337
REMARK  143  A    between atoms: _342  and  _343
REMARK  144  A    between atoms: _345  and  _347
REMARK  145  A    between atoms: _347  and  _348
REMARK  146  A    between atoms: _347  and  _350
REMARK  147  A    between atoms: _350  and  _351
REMARK  148  A    between atoms: _351  and  _352
REMARK  149  A    between atoms: _352  and  _353
REMARK  150  A    between atoms: _362  and  _364
REMARK  151  A    between atoms: _364  and  _365
REMARK  152  A    between atoms: _364  and  _367
REMARK  153  A    between atoms: _367  and  _368
REMARK  154  A    between atoms: _373  and  _374
REMARK  155  A    between atoms: _376  and  _378
REMARK  156  A    between atoms: _378  and  _379
REMARK  157  A    between atoms: _378  and  _381
REMARK  158  A    between atoms: _381  and  _382
REMARK  159  A    between atoms: _385  and  _387
REMARK  160  A    between atoms: _387  and  _388
REMARK  161  A    between atoms: _387  and  _390
REMARK  162  A    between atoms: _390  and  _391
REMARK  163  A    between atoms: _393  and  _395
REMARK  164  A    between atoms: _395  and  _396
REMARK  165  A    between atoms: _395  and  _398
REMARK  166  A    between atoms: _398  and  _399
REMARK  167  A    between atoms: _405  and  _407
REMARK  168  A    between atoms: _407  and  _408
REMARK  169  A    between atoms: _407  and  _410
REMARK  170  A    between atoms: _410  and  _411
REMARK  171  A    between atoms: _411  and  _412
REMARK                            x       y       z     vdW  Elec       q    Type
REMARK                         _______ _______ _______ _____ _____    ______ ____
ROOT
ATOM      1  O   HOH     1      27.194   8.009 -35.231  0.00  0.00    +0.000 OA
ENDROOT
TORSDOF 0
REMARK  Name = ../refined-set-2016/2x8z/2x8z_pocket.pdb
REMARK  171 active torsions:
REMARK  status: ('A' for Active; 'I' for Inactive)
REMARK    1  A    between atoms: _1  and  _3
REMARK    2  A    between atoms: _3  and  _4
REMARK    3  A    between atoms: _3  and  _6
REMARK    4  A    between atoms: _6  and  _7
REMARK    5  A    between atoms: _7  and  _8
REMARK    6  A    between atoms: _11  and  _13
REMARK    7  A    between atoms: _13  and  _14
REMARK    8  A    between atoms: _13  and  _16
REMARK    9  A    between atoms: _16  and  _17
REMARK   10  A    between atoms: _22  and  _24
REMARK   11  A    between atoms: _24  and  _25
REMARK   12  A    between atoms: _24  and  _27
REMARK   13  A    between atoms: _27  and  _28
REMARK   14  A    between atoms: _38  and  _40
REMARK   15  A    between atoms: _40  and  _41
REMARK   16  A    between atoms: _40  and  _43
REMARK   17  A    between atoms: _43  and  _44
REMARK   18  A    between atoms: _44  and  _45
REMARK   19  A    between atoms: _50  and  _52
REMARK   20  A    between atoms: _52  and  _53
REMARK   21  A    between atoms: _52  and  _55
REMARK   22  A    between atoms: _55  and  _56
REMARK   23  A    between atoms: _56  and  _57
REMARK   24  A    between atoms: _62  and  _64
REMARK   25  A    between atoms: _64  and  _65
REMARK   26  A    between atoms: _64  and  _67
REMARK   27  A    between atoms: _69  and  _71
REMARK   28  A    between atoms: _71  and  _72
REMARK   29  A    between atoms: _71  and  _74
REMARK   30  A    between atoms: _74  and  _75
REMARK   31  A    between atoms: _80  and  _82
REMARK   32  A    between atoms: _82  and  _83
REMARK   33  A    between atoms: _86  and  _88
REMARK   34  A    between atoms: _88  and  _89
REMARK   35  A    between atoms: _88  and  _91
REMARK   36  A    between atoms: _91  and  _92
REMARK   37  A    between atoms: _94  and  _96
REMARK   38  A    between atoms: _96  and  _97
REMARK   39  A    between atoms: _100  and  _102
REMARK   40  A    between atoms: _102  and  _103
REMARK   41  A    between atoms: _102  and  _105
REMARK   42  A    between atoms: _105  and  _106
REMARK   43  A    between atoms: _106  and  _107
REMARK   44  A    between atoms: _112  and  _114
REMARK   45  A    between atoms: _114  and  _115
REMARK   46  A    between atoms: _114  and  _117
REMARK   47  A    between atoms: _117  and  _118
REMARK   48  A    between atoms: _118  and  _119
REMARK   49  A    between atoms: _124  and  _126
REMARK   50  A    between atoms: _126  and  _127
REMARK   51  A    between atoms: _126  and  _129
REMARK   52  A    between atoms: _129  and  _130
REMARK   53  A    between atoms: _136  and  _138
REMARK   54  A    between atoms: _138  and  _139
REMARK   55  A    between atoms: _138  and  _141
REMARK   56  A    between atoms: _141  and  _142
REMARK   57  A    between atoms: _145  and  _147
REMARK   58  A    between atoms: _147  and  _148
REMARK   59  A    between atoms: _147  and  _150
REMARK   60  A    between atoms: _153  and  _155
REMARK   61  A    between atoms: _155  and  _156
REMARK   62  A    between atoms: _155  and  _158
REMARK   63  A    between atoms: _158  and  _159
REMARK   64  A    between atoms: _163  and  ZN_417
REMARK   65  A    between atoms: _164  and  _166
REMARK   66  A    between atoms: _166  and  _167
REMARK   67  A    between atoms: _166  and  _169
REMARK   68  A    between atoms: _169  and  _170
REMARK   69  A    between atoms: _170  and  _171
REMARK   70  A    between atoms: _174  and  _176
REMARK   71  A    between atoms: _176  and  _177
REMARK   72  A    between atoms: _176  and  _179
REMARK   73  A    between atoms: _179  and  _180
REMARK   74  A    between atoms: _184  and  ZN_417
REMARK   75  A    between atoms: _185  and  _187
REMARK   76  A    between atoms: _187  and  _188
REMARK   77  A    between atoms: _187  and  _190
REMARK   78  A    between atoms: _190  and  _191
REMARK   79  A    between atoms: _196  and  _198
REMARK   80  A    between atoms: _198  and  _199
REMARK   81  A    between atoms: _198  and  _201
REMARK   82  A    between atoms: _201  and  _202
REMARK   83  A    between atoms: _202  and  _203
REMARK   84  A    between atoms: _203  and  _204
REMARK   85  A    between atoms: _204  and  ZN_417
REMARK   86  A    between atoms: _206  and  _208
REMARK   87  A    between atoms: _208  and  _209
REMARK   88  A    between atoms: _208  and  _211
REMARK   89  A    between atoms: _211  and  _212
REMARK   90  A    between atoms: _215  and  _217
REMARK   91  A    between atoms: _217  and  _218
REMARK   92  A    between atoms: _217  and  _220
REMARK   93  A    between atoms: _220  and  _221
REMARK   94  A    between atoms: _224  and  _226
REMARK   95  A    between atoms: _226  and  _227
REMARK   96  A    between atoms: _226  and  _229
REMARK   97  A    between atoms: _229  and  _230
REMARK   98  A    between atoms: _230  and  _231
REMARK   99  A    between atoms: _231  and  _232
REMARK  100  A    between atoms: _232  and  _233
REMARK  101  A    between atoms: _237  and  _239
REMARK  102  A    between atoms: _239  and  _240
REMARK  103  A    between atoms: _239  and  _242
REMARK  104  A    between atoms: _242  and  _243
REMARK  105  A    between atoms: _249  and  _251
REMARK  106  A    between atoms: _251  and  _252
REMARK  107  A    between atoms: _251  and  _254
REMARK  108  A    between atoms: _254  and  _255
REMARK  109  A    between atoms: _261  and  _263
REMARK  110  A    between atoms: _263  and  _264
REMARK  111  A    between atoms: _267  and  _269
REMARK  112  A    between atoms: _269  and  _270
REMARK  113  A    between atoms: _269  and  _272
REMARK  114  A    between atoms: _272  and  _273
REMARK  115  A    between atoms: _273  and  _274
REMARK  116  A    between atoms: _276  and  _278
REMARK  117  A    between atoms: _278  and  _279
REMARK  118  A    between atoms: _278  and  _281
REMARK  119  A    between atoms: _281  and  _282
REMARK  120  A    between atoms: _282  and  _283
REMARK  121  A    between atoms: _283  and  _284
REMARK  122  A    between atoms: _284  and  _285
REMARK  123  A    between atoms: _289  and  _291
REMARK  124  A    between atoms: _291  and  _292
REMARK  125  A    between atoms: _291  and  _294
REMARK  126  A    between atoms: _294  and  _295
REMARK  127  A    between atoms: _300  and  _301
REMARK  128  A    between atoms: _303  and  _305
REMARK  129  A    between atoms: _305  and  _306
REMARK  130  A    between atoms: _305  and  _308
REMARK  131  A    between atoms: _308  and  _309
REMARK  132  A    between atoms: _314  and  _316
REMARK  133  A    between atoms: _316  and  _317
REMARK  134  A    between atoms: _316  and  _319
REMARK  135  A    between atoms: _319  and  _320
REMARK  136  A    between atoms: _323  and  _325
REMARK  137  A    between atoms: _325  and  _326
REMARK  138  A    between atoms: _325  and  _328
REMARK  139  A    between atoms: _331  and  _333
REMARK  140  A    between atoms: _333  and  _334
REMARK  141  A    between atoms: _333  and  _336
REMARK  142  A    between atoms: _336  and  _337
REMARK  143  A    between atoms: _342  and  _343
REMARK  144  A    between atoms: _345  and  _347
REMARK  145  A    between atoms: _347  and  _348
REMARK  146  A    between atoms: _347  and  _350
REMARK  147  A    between atoms: _350  and  _351
REMARK  148  A    between atoms: _351  and  _352
REMARK  149  A    between atoms: _352  and  _353
REMARK  150  A    between atoms: _362  and  _364
REMARK  151  A    between atoms: _364  and  _365
REMARK  152  A    between atoms: _364  and  _367
REMARK  153  A    between atoms: _367  and  _368
REMARK  154  A    between atoms: _373  and  _374
REMARK  155  A    between atoms: _376  and  _378
REMARK  156  A    between atoms: _378  and  _379
REMARK  157  A    between atoms: _378  and  _381
REMARK  158  A    between atoms: _381  and  _382
REMARK  159  A    between atoms: _385  and  _387
REMARK  160  A    between atoms: _387  and  _388
REMARK  161  A    between atoms: _387  and  _390
REMARK  162  A    between atoms: _390  and  _391
REMARK  163  A    between atoms: _393  and  _395
REMARK  164  A    between atoms: _395  and  _396
REMARK  165  A    between atoms: _395  and  _398
REMARK  166  A    between atoms: _398  and  _399
REMARK  167  A    between atoms: _405  and  _407
REMARK  168  A    between atoms: _407  and  _408
REMARK  169  A    between atoms: _407  and  _410
REMARK  170  A    between atoms: _410  and  _411
REMARK  171  A    between atoms: _411  and  _412
REMARK                            x       y       z     vdW  Elec       q    Type
REMARK                         _______ _______ _______ _____ _____    ______ ____
ROOT
ATOM      1  O   HOH     1      32.360   8.530 -38.548  0.00  0.00    +0.000 OA
ENDROOT
TORSDOF 0
REMARK  Name = ../refined-set-2016/2x8z/2x8z_pocket.pdb
REMARK  171 active torsions:
REMARK  status: ('A' for Active; 'I' for Inactive)
REMARK    1  A    between atoms: _1  and  _3
REMARK    2  A    between atoms: _3  and  _4
REMARK    3  A    between atoms: _3  and  _6
REMARK    4  A    between atoms: _6  and  _7
REMARK    5  A    between atoms: _7  and  _8
REMARK    6  A    between atoms: _11  and  _13
REMARK    7  A    between atoms: _13  and  _14
REMARK    8  A    between atoms: _13  and  _16
REMARK    9  A    between atoms: _16  and  _17
REMARK   10  A    between atoms: _22  and  _24
REMARK   11  A    between atoms: _24  and  _25
REMARK   12  A    between atoms: _24  and  _27
REMARK   13  A    between atoms: _27  and  _28
REMARK   14  A    between atoms: _38  and  _40
REMARK   15  A    between atoms: _40  and  _41
REMARK   16  A    between atoms: _40  and  _43
REMARK   17  A    between atoms: _43  and  _44
REMARK   18  A    between atoms: _44  and  _45
REMARK   19  A    between atoms: _50  and  _52
REMARK   20  A    between atoms: _52  and  _53
REMARK   21  A    between atoms: _52  and  _55
REMARK   22  A    between atoms: _55  and  _56
REMARK   23  A    between atoms: _56  and  _57
REMARK   24  A    between atoms: _62  and  _64
REMARK   25  A    between atoms: _64  and  _65
REMARK   26  A    between atoms: _64  and  _67
REMARK   27  A    between atoms: _69  and  _71
REMARK   28  A    between atoms: _71  and  _72
REMARK   29  A    between atoms: _71  and  _74
REMARK   30  A    between atoms: _74  and  _75
REMARK   31  A    between atoms: _80  and  _82
REMARK   32  A    between atoms: _82  and  _83
REMARK   33  A    between atoms: _86  and  _88
REMARK   34  A    between atoms: _88  and  _89
REMARK   35  A    between atoms: _88  and  _91
REMARK   36  A    between atoms: _91  and  _92
REMARK   37  A    between atoms: _94  and  _96
REMARK   38  A    between atoms: _96  and  _97
REMARK   39  A    between atoms: _100  and  _102
REMARK   40  A    between atoms: _102  and  _103
REMARK   41  A    between atoms: _102  and  _105
REMARK   42  A    between atoms: _105  and  _106
REMARK   43  A    between atoms: _106  and  _107
REMARK   44  A    between atoms: _112  and  _114
REMARK   45  A    between atoms: _114  and  _115
REMARK   46  A    between atoms: _114  and  _117
REMARK   47  A    between atoms: _117  and  _118
REMARK   48  A    between atoms: _118  and  _119
REMARK   49  A    between atoms: _124  and  _126
REMARK   50  A    between atoms: _126  and  _127
REMARK   51  A    between atoms: _126  and  _129
REMARK   52  A    between atoms: _129  and  _130
REMARK   53  A    between atoms: _136  and  _138
REMARK   54  A    between atoms: _138  and  _139
REMARK   55  A    between atoms: _138  and  _141
REMARK   56  A    between atoms: _141  and  _142
REMARK   57  A    between atoms: _145  and  _147
REMARK   58  A    between atoms: _147  and  _148
REMARK   59  A    between atoms: _147  and  _150
REMARK   60  A    between atoms: _153  and  _155
REMARK   61  A    between atoms: _155  and  _156
REMARK   62  A    between atoms: _155  and  _158
REMARK   63  A    between atoms: _158  and  _159
REMARK   64  A    between atoms: _163  and  ZN_417
REMARK   65  A    between atoms: _164  and  _166
REMARK   66  A    between atoms: _166  and  _167
REMARK   67  A    between atoms: _166  and  _169
REMARK   68  A    between atoms: _169  and  _170
REMARK   69  A    between atoms: _170  and  _171
REMARK   70  A    between atoms: _174  and  _176
REMARK   71  A    between atoms: _176  and  _177
REMARK   72  A    between atoms: _176  and  _179
REMARK   73  A    between atoms: _179  and  _180
REMARK   74  A    between atoms: _184  and  ZN_417
REMARK   75  A    between atoms: _185  and  _187
REMARK   76  A    between atoms: _187  and  _188
REMARK   77  A    between atoms: _187  and  _190
REMARK   78  A    between atoms: _190  and  _191
REMARK   79  A    between atoms: _196  and  _198
REMARK   80  A    between atoms: _198  and  _199
REMARK   81  A    between atoms: _198  and  _201
REMARK   82  A    between atoms: _201  and  _202
REMARK   83  A    between atoms: _202  and  _203
REMARK   84  A    between atoms: _203  and  _204
REMARK   85  A    between atoms: _204  and  ZN_417
REMARK   86  A    between atoms: _206  and  _208
REMARK   87  A    between atoms: _208  and  _209
REMARK   88  A    between atoms: _208  and  _211
REMARK   89  A    between atoms: _211  and  _212
REMARK   90  A    between atoms: _215  and  _217
REMARK   91  A    between atoms: _217  and  _218
REMARK   92  A    between atoms: _217  and  _220
REMARK   93  A    between atoms: _220  and  _221
REMARK   94  A    between atoms: _224  and  _226
REMARK   95  A    between atoms: _226  and  _227
REMARK   96  A    between atoms: _226  and  _229
REMARK   97  A    between atoms: _229  and  _230
REMARK   98  A    between atoms: _230  and  _231
REMARK   99  A    between atoms: _231  and  _232
REMARK  100  A    between atoms: _232  and  _233
REMARK  101  A    between atoms: _237  and  _239
REMARK  102  A    between atoms: _239  and  _240
REMARK  103  A    between atoms: _239  and  _242
REMARK  104  A    between atoms: _242  and  _243
REMARK  105  A    between atoms: _249  and  _251
REMARK  106  A    between atoms: _251  and  _252
REMARK  107  A    between atoms: _251  and  _254
REMARK  108  A    between atoms: _254  and  _255
REMARK  109  A    between atoms: _261  and  _263
REMARK  110  A    between atoms: _263  and  _264
REMARK  111  A    between atoms: _267  and  _269
REMARK  112  A    between atoms: _269  and  _270
REMARK  113  A    between atoms: _269  and  _272
REMARK  114  A    between atoms: _272  and  _273
REMARK  115  A    between atoms: _273  and  _274
REMARK  116  A    between atoms: _276  and  _278
REMARK  117  A    between atoms: _278  and  _279
REMARK  118  A    between atoms: _278  and  _281
REMARK  119  A    between atoms: _281  and  _282
REMARK  120  A    between atoms: _282  and  _283
REMARK  121  A    between atoms: _283  and  _284
REMARK  122  A    between atoms: _284  and  _285
REMARK  123  A    between atoms: _289  and  _291
REMARK  124  A    between atoms: _291  and  _292
REMARK  125  A    between atoms: _291  and  _294
REMARK  126  A    between atoms: _294  and  _295
REMARK  127  A    between atoms: _300  and  _301
REMARK  128  A    between atoms: _303  and  _305
REMARK  129  A    between atoms: _305  and  _306
REMARK  130  A    between atoms: _305  and  _308
REMARK  131  A    between atoms: _308  and  _309
REMARK  132  A    between atoms: _314  and  _316
REMARK  133  A    between atoms: _316  and  _317
REMARK  134  A    between atoms: _316  and  _319
REMARK  135  A    between atoms: _319  and  _320
REMARK  136  A    between atoms: _323  and  _325
REMARK  137  A    between atoms: _325  and  _326
REMARK  138  A    between atoms: _325  and  _328
REMARK  139  A    between atoms: _331  and  _333
REMARK  140  A    between atoms: _333  and  _334
REMARK  141  A    between atoms: _333  and  _336
REMARK  142  A    between atoms: _336  and  _337
REMARK  143  A    between atoms: _342  and  _343
REMARK  144  A    between atoms: _345  and  _347
REMARK  145  A    between atoms: _347  and  _348
REMARK  146  A    between atoms: _347  and  _350
REMARK  147  A    between atoms: _350  and  _351
REMARK  148  A    between atoms: _351  and  _352
REMARK  149  A    between atoms: _352  and  _353
REMARK  150  A    between atoms: _362  and  _364
REMARK  151  A    between atoms: _364  and  _365
REMARK  152  A    between atoms: _364  and  _367
REMARK  153  A    between atoms: _367  and  _368
REMARK  154  A    between atoms: _373  and  _374
REMARK  155  A    between atoms: _376  and  _378
REMARK  156  A    between atoms: _378  and  _379
REMARK  157  A    between atoms: _378  and  _381
REMARK  158  A    between atoms: _381  and  _382
REMARK  159  A    between atoms: _385  and  _387
REMARK  160  A    between atoms: _387  and  _388
REMARK  161  A    between atoms: _387  and  _390
REMARK  162  A    between atoms: _390  and  _391
REMARK  163  A    between atoms: _393  and  _395
REMARK  164  A    between atoms: _395  and  _396
REMARK  165  A    between atoms: _395  and  _398
REMARK  166  A    between atoms: _398  and  _399
REMARK  167  A    between atoms: _405  and  _407
REMARK  168  A    between atoms: _407  and  _408
REMARK  169  A    between atoms: _407  and  _410
REMARK  170  A    between atoms: _410  and  _411
REMARK  171  A    between atoms: _411  and  _412
REMARK                            x       y       z     vdW  Elec       q    Type
REMARK                         _______ _______ _______ _____ _____    ______ ____
ROOT
ATOM      1  O   HOH     1      32.639   9.358 -43.097  0.00  0.00    +0.000 OA
ENDROOT
TORSDOF 0
REMARK  Name = ../refined-set-2016/2x8z/2x8z_pocket.pdb
REMARK  171 active torsions:
REMARK  status: ('A' for Active; 'I' for Inactive)
REMARK    1  A    between atoms: _1  and  _3
REMARK    2  A    between atoms: _3  and  _4
REMARK    3  A    between atoms: _3  and  _6
REMARK    4  A    between atoms: _6  and  _7
REMARK    5  A    between atoms: _7  and  _8
REMARK    6  A    between atoms: _11  and  _13
REMARK    7  A    between atoms: _13  and  _14
REMARK    8  A    between atoms: _13  and  _16
REMARK    9  A    between atoms: _16  and  _17
REMARK   10  A    between atoms: _22  and  _24
REMARK   11  A    between atoms: _24  and  _25
REMARK   12  A    between atoms: _24  and  _27
REMARK   13  A    between atoms: _27  and  _28
REMARK   14  A    between atoms: _38  and  _40
REMARK   15  A    between atoms: _40  and  _41
REMARK   16  A    between atoms: _40  and  _43
REMARK   17  A    between atoms: _43  and  _44
REMARK   18  A    between atoms: _44  and  _45
REMARK   19  A    between atoms: _50  and  _52
REMARK   20  A    between atoms: _52  and  _53
REMARK   21  A    between atoms: _52  and  _55
REMARK   22  A    between atoms: _55  and  _56
REMARK   23  A    between atoms: _56  and  _57
REMARK   24  A    between atoms: _62  and  _64
REMARK   25  A    between atoms: _64  and  _65
REMARK   26  A    between atoms: _64  and  _67
REMARK   27  A    between atoms: _69  and  _71
REMARK   28  A    between atoms: _71  and  _72
REMARK   29  A    between atoms: _71  and  _74
REMARK   30  A    between atoms: _74  and  _75
REMARK   31  A    between atoms: _80  and  _82
REMARK   32  A    between atoms: _82  and  _83
REMARK   33  A    between atoms: _86  and  _88
REMARK   34  A    between atoms: _88  and  _89
REMARK   35  A    between atoms: _88  and  _91
REMARK   36  A    between atoms: _91  and  _92
REMARK   37  A    between atoms: _94  and  _96
REMARK   38  A    between atoms: _96  and  _97
REMARK   39  A    between atoms: _100  and  _102
REMARK   40  A    between atoms: _102  and  _103
REMARK   41  A    between atoms: _102  and  _105
REMARK   42  A    between atoms: _105  and  _106
REMARK   43  A    between atoms: _106  and  _107
REMARK   44  A    between atoms: _112  and  _114
REMARK   45  A    between atoms: _114  and  _115
REMARK   46  A    between atoms: _114  and  _117
REMARK   47  A    between atoms: _117  and  _118
REMARK   48  A    between atoms: _118  and  _119
REMARK   49  A    between atoms: _124  and  _126
REMARK   50  A    between atoms: _126  and  _127
REMARK   51  A    between atoms: _126  and  _129
REMARK   52  A    between atoms: _129  and  _130
REMARK   53  A    between atoms: _136  and  _138
REMARK   54  A    between atoms: _138  and  _139
REMARK   55  A    between atoms: _138  and  _141
REMARK   56  A    between atoms: _141  and  _142
REMARK   57  A    between atoms: _145  and  _147
REMARK   58  A    between atoms: _147  and  _148
REMARK   59  A    between atoms: _147  and  _150
REMARK   60  A    between atoms: _153  and  _155
REMARK   61  A    between atoms: _155  and  _156
REMARK   62  A    between atoms: _155  and  _158
REMARK   63  A    between atoms: _158  and  _159
REMARK   64  A    between atoms: _163  and  ZN_417
REMARK   65  A    between atoms: _164  and  _166
REMARK   66  A    between atoms: _166  and  _167
REMARK   67  A    between atoms: _166  and  _169
REMARK   68  A    between atoms: _169  and  _170
REMARK   69  A    between atoms: _170  and  _171
REMARK   70  A    between atoms: _174  and  _176
REMARK   71  A    between atoms: _176  and  _177
REMARK   72  A    between atoms: _176  and  _179
REMARK   73  A    between atoms: _179  and  _180
REMARK   74  A    between atoms: _184  and  ZN_417
REMARK   75  A    between atoms: _185  and  _187
REMARK   76  A    between atoms: _187  and  _188
REMARK   77  A    between atoms: _187  and  _190
REMARK   78  A    between atoms: _190  and  _191
REMARK   79  A    between atoms: _196  and  _198
REMARK   80  A    between atoms: _198  and  _199
REMARK   81  A    between atoms: _198  and  _201
REMARK   82  A    between atoms: _201  and  _202
REMARK   83  A    between atoms: _202  and  _203
REMARK   84  A    between atoms: _203  and  _204
REMARK   85  A    between atoms: _204  and  ZN_417
REMARK   86  A    between atoms: _206  and  _208
REMARK   87  A    between atoms: _208  and  _209
REMARK   88  A    between atoms: _208  and  _211
REMARK   89  A    between atoms: _211  and  _212
REMARK   90  A    between atoms: _215  and  _217
REMARK   91  A    between atoms: _217  and  _218
REMARK   92  A    between atoms: _217  and  _220
REMARK   93  A    between atoms: _220  and  _221
REMARK   94  A    between atoms: _224  and  _226
REMARK   95  A    between atoms: _226  and  _227
REMARK   96  A    between atoms: _226  and  _229
REMARK   97  A    between atoms: _229  and  _230
REMARK   98  A    between atoms: _230  and  _231
REMARK   99  A    between atoms: _231  and  _232
REMARK  100  A    between atoms: _232  and  _233
REMARK  101  A    between atoms: _237  and  _239
REMARK  102  A    between atoms: _239  and  _240
REMARK  103  A    between atoms: _239  and  _242
REMARK  104  A    between atoms: _242  and  _243
REMARK  105  A    between atoms: _249  and  _251
REMARK  106  A    between atoms: _251  and  _252
REMARK  107  A    between atoms: _251  and  _254
REMARK  108  A    between atoms: _254  and  _255
REMARK  109  A    between atoms: _261  and  _263
REMARK  110  A    between atoms: _263  and  _264
REMARK  111  A    between atoms: _267  and  _269
REMARK  112  A    between atoms: _269  and  _270
REMARK  113  A    between atoms: _269  and  _272
REMARK  114  A    between atoms: _272  and  _273
REMARK  115  A    between atoms: _273  and  _274
REMARK  116  A    between atoms: _276  and  _278
REMARK  117  A    between atoms: _278  and  _279
REMARK  118  A    between atoms: _278  and  _281
REMARK  119  A    between atoms: _281  and  _282
REMARK  120  A    between atoms: _282  and  _283
REMARK  121  A    between atoms: _283  and  _284
REMARK  122  A    between atoms: _284  and  _285
REMARK  123  A    between atoms: _289  and  _291
REMARK  124  A    between atoms: _291  and  _292
REMARK  125  A    between atoms: _291  and  _294
REMARK  126  A    between atoms: _294  and  _295
REMARK  127  A    between atoms: _300  and  _301
REMARK  128  A    between atoms: _303  and  _305
REMARK  129  A    between atoms: _305  and  _306
REMARK  130  A    between atoms: _305  and  _308
REMARK  131  A    between atoms: _308  and  _309
REMARK  132  A    between atoms: _314  and  _316
REMARK  133  A    between atoms: _316  and  _317
REMARK  134  A    between atoms: _316  and  _319
REMARK  135  A    between atoms: _319  and  _320
REMARK  136  A    between atoms: _323  and  _325
REMARK  137  A    between atoms: _325  and  _326
REMARK  138  A    between atoms: _325  and  _328
REMARK  139  A    between atoms: _331  and  _333
REMARK  140  A    between atoms: _333  and  _334
REMARK  141  A    between atoms: _333  and  _336
REMARK  142  A    between atoms: _336  and  _337
REMARK  143  A    between atoms: _342  and  _343
REMARK  144  A    between atoms: _345  and  _347
REMARK  145  A    between atoms: _347  and  _348
REMARK  146  A    between atoms: _347  and  _350
REMARK  147  A    between atoms: _350  and  _351
REMARK  148  A    between atoms: _351  and  _352
REMARK  149  A    between atoms: _352  and  _353
REMARK  150  A    between atoms: _362  and  _364
REMARK  151  A    between atoms: _364  and  _365
REMARK  152  A    between atoms: _364  and  _367
REMARK  153  A    between atoms: _367  and  _368
REMARK  154  A    between atoms: _373  and  _374
REMARK  155  A    between atoms: _376  and  _378
REMARK  156  A    between atoms: _378  and  _379
REMARK  157  A    between atoms: _378  and  _381
REMARK  158  A    between atoms: _381  and  _382
REMARK  159  A    between atoms: _385  and  _387
REMARK  160  A    between atoms: _387  and  _388
REMARK  161  A    between atoms: _387  and  _390
REMARK  162  A    between atoms: _390  and  _391
REMARK  163  A    between atoms: _393  and  _395
REMARK  164  A    between atoms: _395  and  _396
REMARK  165  A    between atoms: _395  and  _398
REMARK  166  A    between atoms: _398  and  _399
REMARK  167  A    between atoms: _405  and  _407
REMARK  168  A    between atoms: _407  and  _408
REMARK  169  A    between atoms: _407  and  _410
REMARK  170  A    between atoms: _410  and  _411
REMARK  171  A    between atoms: _411  and  _412
REMARK                            x       y       z     vdW  Elec       q    Type
REMARK                         _______ _______ _______ _____ _____    ______ ____
ROOT
ATOM      1  O   HOH     1      22.885   3.957 -36.174  0.00  0.00    +0.000 OA
ENDROOT
TORSDOF 0
REMARK  Name = ../refined-set-2016/2x8z/2x8z_pocket.pdb
REMARK  171 active torsions:
REMARK  status: ('A' for Active; 'I' for Inactive)
REMARK    1  A    between atoms: _1  and  _3
REMARK    2  A    between atoms: _3  and  _4
REMARK    3  A    between atoms: _3  and  _6
REMARK    4  A    between atoms: _6  and  _7
REMARK    5  A    between atoms: _7  and  _8
REMARK    6  A    between atoms: _11  and  _13
REMARK    7  A    between atoms: _13  and  _14
REMARK    8  A    between atoms: _13  and  _16
REMARK    9  A    between atoms: _16  and  _17
REMARK   10  A    between atoms: _22  and  _24
REMARK   11  A    between atoms: _24  and  _25
REMARK   12  A    between atoms: _24  and  _27
REMARK   13  A    between atoms: _27  and  _28
REMARK   14  A    between atoms: _38  and  _40
REMARK   15  A    between atoms: _40  and  _41
REMARK   16  A    between atoms: _40  and  _43
REMARK   17  A    between atoms: _43  and  _44
REMARK   18  A    between atoms: _44  and  _45
REMARK   19  A    between atoms: _50  and  _52
REMARK   20  A    between atoms: _52  and  _53
REMARK   21  A    between atoms: _52  and  _55
REMARK   22  A    between atoms: _55  and  _56
REMARK   23  A    between atoms: _56  and  _57
REMARK   24  A    between atoms: _62  and  _64
REMARK   25  A    between atoms: _64  and  _65
REMARK   26  A    between atoms: _64  and  _67
REMARK   27  A    between atoms: _69  and  _71
REMARK   28  A    between atoms: _71  and  _72
REMARK   29  A    between atoms: _71  and  _74
REMARK   30  A    between atoms: _74  and  _75
REMARK   31  A    between atoms: _80  and  _82
REMARK   32  A    between atoms: _82  and  _83
REMARK   33  A    between atoms: _86  and  _88
REMARK   34  A    between atoms: _88  and  _89
REMARK   35  A    between atoms: _88  and  _91
REMARK   36  A    between atoms: _91  and  _92
REMARK   37  A    between atoms: _94  and  _96
REMARK   38  A    between atoms: _96  and  _97
REMARK   39  A    between atoms: _100  and  _102
REMARK   40  A    between atoms: _102  and  _103
REMARK   41  A    between atoms: _102  and  _105
REMARK   42  A    between atoms: _105  and  _106
REMARK   43  A    between atoms: _106  and  _107
REMARK   44  A    between atoms: _112  and  _114
REMARK   45  A    between atoms: _114  and  _115
REMARK   46  A    between atoms: _114  and  _117
REMARK   47  A    between atoms: _117  and  _118
REMARK   48  A    between atoms: _118  and  _119
REMARK   49  A    between atoms: _124  and  _126
REMARK   50  A    between atoms: _126  and  _127
REMARK   51  A    between atoms: _126  and  _129
REMARK   52  A    between atoms: _129  and  _130
REMARK   53  A    between atoms: _136  and  _138
REMARK   54  A    between atoms: _138  and  _139
REMARK   55  A    between atoms: _138  and  _141
REMARK   56  A    between atoms: _141  and  _142
REMARK   57  A    between atoms: _145  and  _147
REMARK   58  A    between atoms: _147  and  _148
REMARK   59  A    between atoms: _147  and  _150
REMARK   60  A    between atoms: _153  and  _155
REMARK   61  A    between atoms: _155  and  _156
REMARK   62  A    between atoms: _155  and  _158
REMARK   63  A    between atoms: _158  and  _159
REMARK   64  A    between atoms: _163  and  ZN_417
REMARK   65  A    between atoms: _164  and  _166
REMARK   66  A    between atoms: _166  and  _167
REMARK   67  A    between atoms: _166  and  _169
REMARK   68  A    between atoms: _169  and  _170
REMARK   69  A    between atoms: _170  and  _171
REMARK   70  A    between atoms: _174  and  _176
REMARK   71  A    between atoms: _176  and  _177
REMARK   72  A    between atoms: _176  and  _179
REMARK   73  A    between atoms: _179  and  _180
REMARK   74  A    between atoms: _184  and  ZN_417
REMARK   75  A    between atoms: _185  and  _187
REMARK   76  A    between atoms: _187  and  _188
REMARK   77  A    between atoms: _187  and  _190
REMARK   78  A    between atoms: _190  and  _191
REMARK   79  A    between atoms: _196  and  _198
REMARK   80  A    between atoms: _198  and  _199
REMARK   81  A    between atoms: _198  and  _201
REMARK   82  A    between atoms: _201  and  _202
REMARK   83  A    between atoms: _202  and  _203
REMARK   84  A    between atoms: _203  and  _204
REMARK   85  A    between atoms: _204  and  ZN_417
REMARK   86  A    between atoms: _206  and  _208
REMARK   87  A    between atoms: _208  and  _209
REMARK   88  A    between atoms: _208  and  _211
REMARK   89  A    between atoms: _211  and  _212
REMARK   90  A    between atoms: _215  and  _217
REMARK   91  A    between atoms: _217  and  _218
REMARK   92  A    between atoms: _217  and  _220
REMARK   93  A    between atoms: _220  and  _221
REMARK   94  A    between atoms: _224  and  _226
REMARK   95  A    between atoms: _226  and  _227
REMARK   96  A    between atoms: _226  and  _229
REMARK   97  A    between atoms: _229  and  _230
REMARK   98  A    between atoms: _230  and  _231
REMARK   99  A    between atoms: _231  and  _232
REMARK  100  A    between atoms: _232  and  _233
REMARK  101  A    between atoms: _237  and  _239
REMARK  102  A    between atoms: _239  and  _240
REMARK  103  A    between atoms: _239  and  _242
REMARK  104  A    between atoms: _242  and  _243
REMARK  105  A    between atoms: _249  and  _251
REMARK  106  A    between atoms: _251  and  _252
REMARK  107  A    between atoms: _251  and  _254
REMARK  108  A    between atoms: _254  and  _255
REMARK  109  A    between atoms: _261  and  _263
REMARK  110  A    between atoms: _263  and  _264
REMARK  111  A    between atoms: _267  and  _269
REMARK  112  A    between atoms: _269  and  _270
REMARK  113  A    between atoms: _269  and  _272
REMARK  114  A    between atoms: _272  and  _273
REMARK  115  A    between atoms: _273  and  _274
REMARK  116  A    between atoms: _276  and  _278
REMARK  117  A    between atoms: _278  and  _279
REMARK  118  A    between atoms: _278  and  _281
REMARK  119  A    between atoms: _281  and  _282
REMARK  120  A    between atoms: _282  and  _283
REMARK  121  A    between atoms: _283  and  _284
REMARK  122  A    between atoms: _284  and  _285
REMARK  123  A    between atoms: _289  and  _291
REMARK  124  A    between atoms: _291  and  _292
REMARK  125  A    between atoms: _291  and  _294
REMARK  126  A    between atoms: _294  and  _295
REMARK  127  A    between atoms: _300  and  _301
REMARK  128  A    between atoms: _303  and  _305
REMARK  129  A    between atoms: _305  and  _306
REMARK  130  A    between atoms: _305  and  _308
REMARK  131  A    between atoms: _308  and  _309
REMARK  132  A    between atoms: _314  and  _316
REMARK  133  A    between atoms: _316  and  _317
REMARK  134  A    between atoms: _316  and  _319
REMARK  135  A    between atoms: _319  and  _320
REMARK  136  A    between atoms: _323  and  _325
REMARK  137  A    between atoms: _325  and  _326
REMARK  138  A    between atoms: _325  and  _328
REMARK  139  A    between atoms: _331  and  _333
REMARK  140  A    between atoms: _333  and  _334
REMARK  141  A    between atoms: _333  and  _336
REMARK  142  A    between atoms: _336  and  _337
REMARK  143  A    between atoms: _342  and  _343
REMARK  144  A    between atoms: _345  and  _347
REMARK  145  A    between atoms: _347  and  _348
REMARK  146  A    between atoms: _347  and  _350
REMARK  147  A    between atoms: _350  and  _351
REMARK  148  A    between atoms: _351  and  _352
REMARK  149  A    between atoms: _352  and  _353
REMARK  150  A    between atoms: _362  and  _364
REMARK  151  A    between atoms: _364  and  _365
REMARK  152  A    between atoms: _364  and  _367
REMARK  153  A    between atoms: _367  and  _368
REMARK  154  A    between atoms: _373  and  _374
REMARK  155  A    between atoms: _376  and  _378
REMARK  156  A    between atoms: _378  and  _379
REMARK  157  A    between atoms: _378  and  _381
REMARK  158  A    between atoms: _381  and  _382
REMARK  159  A    between atoms: _385  and  _387
REMARK  160  A    between atoms: _387  and  _388
REMARK  161  A    between atoms: _387  and  _390
REMARK  162  A    between atoms: _390  and  _391
REMARK  163  A    between atoms: _393  and  _395
REMARK  164  A    between atoms: _395  and  _396
REMARK  165  A    between atoms: _395  and  _398
REMARK  166  A    between atoms: _398  and  _399
REMARK  167  A    between atoms: _405  and  _407
REMARK  168  A    between atoms: _407  and  _408
REMARK  169  A    between atoms: _407  and  _410
REMARK  170  A    between atoms: _410  and  _411
REMARK  171  A    between atoms: _411  and  _412
REMARK                            x       y       z     vdW  Elec       q    Type
REMARK                         _______ _______ _______ _____ _____    ______ ____
ROOT
ATOM      1  O   HOH     1      30.749   3.011 -35.787  0.00  0.00    +0.000 OA
ENDROOT
TORSDOF 0
REMARK  Name = ../refined-set-2016/2x8z/2x8z_pocket.pdb
REMARK  171 active torsions:
REMARK  status: ('A' for Active; 'I' for Inactive)
REMARK    1  A    between atoms: _1  and  _3
REMARK    2  A    between atoms: _3  and  _4
REMARK    3  A    between atoms: _3  and  _6
REMARK    4  A    between atoms: _6  and  _7
REMARK    5  A    between atoms: _7  and  _8
REMARK    6  A    between atoms: _11  and  _13
REMARK    7  A    between atoms: _13  and  _14
REMARK    8  A    between atoms: _13  and  _16
REMARK    9  A    between atoms: _16  and  _17
REMARK   10  A    between atoms: _22  and  _24
REMARK   11  A    between atoms: _24  and  _25
REMARK   12  A    between atoms: _24  and  _27
REMARK   13  A    between atoms: _27  and  _28
REMARK   14  A    between atoms: _38  and  _40
REMARK   15  A    between atoms: _40  and  _41
REMARK   16  A    between atoms: _40  and  _43
REMARK   17  A    between atoms: _43  and  _44
REMARK   18  A    between atoms: _44  and  _45
REMARK   19  A    between atoms: _50  and  _52
REMARK   20  A    between atoms: _52  and  _53
REMARK   21  A    between atoms: _52  and  _55
REMARK   22  A    between atoms: _55  and  _56
REMARK   23  A    between atoms: _56  and  _57
REMARK   24  A    between atoms: _62  and  _64
REMARK   25  A    between atoms: _64  and  _65
REMARK   26  A    between atoms: _64  and  _67
REMARK   27  A    between atoms: _69  and  _71
REMARK   28  A    between atoms: _71  and  _72
REMARK   29  A    between atoms: _71  and  _74
REMARK   30  A    between atoms: _74  and  _75
REMARK   31  A    between atoms: _80  and  _82
REMARK   32  A    between atoms: _82  and  _83
REMARK   33  A    between atoms: _86  and  _88
REMARK   34  A    between atoms: _88  and  _89
REMARK   35  A    between atoms: _88  and  _91
REMARK   36  A    between atoms: _91  and  _92
REMARK   37  A    between atoms: _94  and  _96
REMARK   38  A    between atoms: _96  and  _97
REMARK   39  A    between atoms: _100  and  _102
REMARK   40  A    between atoms: _102  and  _103
REMARK   41  A    between atoms: _102  and  _105
REMARK   42  A    between atoms: _105  and  _106
REMARK   43  A    between atoms: _106  and  _107
REMARK   44  A    between atoms: _112  and  _114
REMARK   45  A    between atoms: _114  and  _115
REMARK   46  A    between atoms: _114  and  _117
REMARK   47  A    between atoms: _117  and  _118
REMARK   48  A    between atoms: _118  and  _119
REMARK   49  A    between atoms: _124  and  _126
REMARK   50  A    between atoms: _126  and  _127
REMARK   51  A    between atoms: _126  and  _129
REMARK   52  A    between atoms: _129  and  _130
REMARK   53  A    between atoms: _136  and  _138
REMARK   54  A    between atoms: _138  and  _139
REMARK   55  A    between atoms: _138  and  _141
REMARK   56  A    between atoms: _141  and  _142
REMARK   57  A    between atoms: _145  and  _147
REMARK   58  A    between atoms: _147  and  _148
REMARK   59  A    between atoms: _147  and  _150
REMARK   60  A    between atoms: _153  and  _155
REMARK   61  A    between atoms: _155  and  _156
REMARK   62  A    between atoms: _155  and  _158
REMARK   63  A    between atoms: _158  and  _159
REMARK   64  A    between atoms: _163  and  ZN_417
REMARK   65  A    between atoms: _164  and  _166
REMARK   66  A    between atoms: _166  and  _167
REMARK   67  A    between atoms: _166  and  _169
REMARK   68  A    between atoms: _169  and  _170
REMARK   69  A    between atoms: _170  and  _171
REMARK   70  A    between atoms: _174  and  _176
REMARK   71  A    between atoms: _176  and  _177
REMARK   72  A    between atoms: _176  and  _179
REMARK   73  A    between atoms: _179  and  _180
REMARK   74  A    between atoms: _184  and  ZN_417
REMARK   75  A    between atoms: _185  and  _187
REMARK   76  A    between atoms: _187  and  _188
REMARK   77  A    between atoms: _187  and  _190
REMARK   78  A    between atoms: _190  and  _191
REMARK   79  A    between atoms: _196  and  _198
REMARK   80  A    between atoms: _198  and  _199
REMARK   81  A    between atoms: _198  and  _201
REMARK   82  A    between atoms: _201  and  _202
REMARK   83  A    between atoms: _202  and  _203
REMARK   84  A    between atoms: _203  and  _204
REMARK   85  A    between atoms: _204  and  ZN_417
REMARK   86  A    between atoms: _206  and  _208
REMARK   87  A    between atoms: _208  and  _209
REMARK   88  A    between atoms: _208  and  _211
REMARK   89  A    between atoms: _211  and  _212
REMARK   90  A    between atoms: _215  and  _217
REMARK   91  A    between atoms: _217  and  _218
REMARK   92  A    between atoms: _217  and  _220
REMARK   93  A    between atoms: _220  and  _221
REMARK   94  A    between atoms: _224  and  _226
REMARK   95  A    between atoms: _226  and  _227
REMARK   96  A    between atoms: _226  and  _229
REMARK   97  A    between atoms: _229  and  _230
REMARK   98  A    between atoms: _230  and  _231
REMARK   99  A    between atoms: _231  and  _232
REMARK  100  A    between atoms: _232  and  _233
REMARK  101  A    between atoms: _237  and  _239
REMARK  102  A    between atoms: _239  and  _240
REMARK  103  A    between atoms: _239  and  _242
REMARK  104  A    between atoms: _242  and  _243
REMARK  105  A    between atoms: _249  and  _251
REMARK  106  A    between atoms: _251  and  _252
REMARK  107  A    between atoms: _251  and  _254
REMARK  108  A    between atoms: _254  and  _255
REMARK  109  A    between atoms: _261  and  _263
REMARK  110  A    between atoms: _263  and  _264
REMARK  111  A    between atoms: _267  and  _269
REMARK  112  A    between atoms: _269  and  _270
REMARK  113  A    between atoms: _269  and  _272
REMARK  114  A    between atoms: _272  and  _273
REMARK  115  A    between atoms: _273  and  _274
REMARK  116  A    between atoms: _276  and  _278
REMARK  117  A    between atoms: _278  and  _279
REMARK  118  A    between atoms: _278  and  _281
REMARK  119  A    between atoms: _281  and  _282
REMARK  120  A    between atoms: _282  and  _283
REMARK  121  A    between atoms: _283  and  _284
REMARK  122  A    between atoms: _284  and  _285
REMARK  123  A    between atoms: _289  and  _291
REMARK  124  A    between atoms: _291  and  _292
REMARK  125  A    between atoms: _291  and  _294
REMARK  126  A    between atoms: _294  and  _295
REMARK  127  A    between atoms: _300  and  _301
REMARK  128  A    between atoms: _303  and  _305
REMARK  129  A    between atoms: _305  and  _306
REMARK  130  A    between atoms: _305  and  _308
REMARK  131  A    between atoms: _308  and  _309
REMARK  132  A    between atoms: _314  and  _316
REMARK  133  A    between atoms: _316  and  _317
REMARK  134  A    between atoms: _316  and  _319
REMARK  135  A    between atoms: _319  and  _320
REMARK  136  A    between atoms: _323  and  _325
REMARK  137  A    between atoms: _325  and  _326
REMARK  138  A    between atoms: _325  and  _328
REMARK  139  A    between atoms: _331  and  _333
REMARK  140  A    between atoms: _333  and  _334
REMARK  141  A    between atoms: _333  and  _336
REMARK  142  A    between atoms: _336  and  _337
REMARK  143  A    between atoms: _342  and  _343
REMARK  144  A    between atoms: _345  and  _347
REMARK  145  A    between atoms: _347  and  _348
REMARK  146  A    between atoms: _347  and  _350
REMARK  147  A    between atoms: _350  and  _351
REMARK  148  A    between atoms: _351  and  _352
REMARK  149  A    between atoms: _352  and  _353
REMARK  150  A    between atoms: _362  and  _364
REMARK  151  A    between atoms: _364  and  _365
REMARK  152  A    between atoms: _364  and  _367
REMARK  153  A    between atoms: _367  and  _368
REMARK  154  A    between atoms: _373  and  _374
REMARK  155  A    between atoms: _376  and  _378
REMARK  156  A    between atoms: _378  and  _379
REMARK  157  A    between atoms: _378  and  _381
REMARK  158  A    between atoms: _381  and  _382
REMARK  159  A    between atoms: _385  and  _387
REMARK  160  A    between atoms: _387  and  _388
REMARK  161  A    between atoms: _387  and  _390
REMARK  162  A    between atoms: _390  and  _391
REMARK  163  A    between atoms: _393  and  _395
REMARK  164  A    between atoms: _395  and  _396
REMARK  165  A    between atoms: _395  and  _398
REMARK  166  A    between atoms: _398  and  _399
REMARK  167  A    between atoms: _405  and  _407
REMARK  168  A    between atoms: _407  and  _408
REMARK  169  A    between atoms: _407  and  _410
REMARK  170  A    between atoms: _410  and  _411
REMARK  171  A    between atoms: _411  and  _412
REMARK                            x       y       z     vdW  Elec       q    Type
REMARK                         _______ _______ _______ _____ _____    ______ ____
ROOT
ATOM      1  O   HOH     1      26.586  -1.109 -41.907  0.00  0.00    +0.000 OA
ENDROOT
TORSDOF 0
REMARK  Name = ../refined-set-2016/2x8z/2x8z_pocket.pdb
REMARK  171 active torsions:
REMARK  status: ('A' for Active; 'I' for Inactive)
REMARK    1  A    between atoms: _1  and  _3
REMARK    2  A    between atoms: _3  and  _4
REMARK    3  A    between atoms: _3  and  _6
REMARK    4  A    between atoms: _6  and  _7
REMARK    5  A    between atoms: _7  and  _8
REMARK    6  A    between atoms: _11  and  _13
REMARK    7  A    between atoms: _13  and  _14
REMARK    8  A    between atoms: _13  and  _16
REMARK    9  A    between atoms: _16  and  _17
REMARK   10  A    between atoms: _22  and  _24
REMARK   11  A    between atoms: _24  and  _25
REMARK   12  A    between atoms: _24  and  _27
REMARK   13  A    between atoms: _27  and  _28
REMARK   14  A    between atoms: _38  and  _40
REMARK   15  A    between atoms: _40  and  _41
REMARK   16  A    between atoms: _40  and  _43
REMARK   17  A    between atoms: _43  and  _44
REMARK   18  A    between atoms: _44  and  _45
REMARK   19  A    between atoms: _50  and  _52
REMARK   20  A    between atoms: _52  and  _53
REMARK   21  A    between atoms: _52  and  _55
REMARK   22  A    between atoms: _55  and  _56
REMARK   23  A    between atoms: _56  and  _57
REMARK   24  A    between atoms: _62  and  _64
REMARK   25  A    between atoms: _64  and  _65
REMARK   26  A    between atoms: _64  and  _67
REMARK   27  A    between atoms: _69  and  _71
REMARK   28  A    between atoms: _71  and  _72
REMARK   29  A    between atoms: _71  and  _74
REMARK   30  A    between atoms: _74  and  _75
REMARK   31  A    between atoms: _80  and  _82
REMARK   32  A    between atoms: _82  and  _83
REMARK   33  A    between atoms: _86  and  _88
REMARK   34  A    between atoms: _88  and  _89
REMARK   35  A    between atoms: _88  and  _91
REMARK   36  A    between atoms: _91  and  _92
REMARK   37  A    between atoms: _94  and  _96
REMARK   38  A    between atoms: _96  and  _97
REMARK   39  A    between atoms: _100  and  _102
REMARK   40  A    between atoms: _102  and  _103
REMARK   41  A    between atoms: _102  and  _105
REMARK   42  A    between atoms: _105  and  _106
REMARK   43  A    between atoms: _106  and  _107
REMARK   44  A    between atoms: _112  and  _114
REMARK   45  A    between atoms: _114  and  _115
REMARK   46  A    between atoms: _114  and  _117
REMARK   47  A    between atoms: _117  and  _118
REMARK   48  A    between atoms: _118  and  _119
REMARK   49  A    between atoms: _124  and  _126
REMARK   50  A    between atoms: _126  and  _127
REMARK   51  A    between atoms: _126  and  _129
REMARK   52  A    between atoms: _129  and  _130
REMARK   53  A    between atoms: _136  and  _138
REMARK   54  A    between atoms: _138  and  _139
REMARK   55  A    between atoms: _138  and  _141
REMARK   56  A    between atoms: _141  and  _142
REMARK   57  A    between atoms: _145  and  _147
REMARK   58  A    between atoms: _147  and  _148
REMARK   59  A    between atoms: _147  and  _150
REMARK   60  A    between atoms: _153  and  _155
REMARK   61  A    between atoms: _155  and  _156
REMARK   62  A    between atoms: _155  and  _158
REMARK   63  A    between atoms: _158  and  _159
REMARK   64  A    between atoms: _163  and  ZN_417
REMARK   65  A    between atoms: _164  and  _166
REMARK   66  A    between atoms: _166  and  _167
REMARK   67  A    between atoms: _166  and  _169
REMARK   68  A    between atoms: _169  and  _170
REMARK   69  A    between atoms: _170  and  _171
REMARK   70  A    between atoms: _174  and  _176
REMARK   71  A    between atoms: _176  and  _177
REMARK   72  A    between atoms: _176  and  _179
REMARK   73  A    between atoms: _179  and  _180
REMARK   74  A    between atoms: _184  and  ZN_417
REMARK   75  A    between atoms: _185  and  _187
REMARK   76  A    between atoms: _187  and  _188
REMARK   77  A    between atoms: _187  and  _190
REMARK   78  A    between atoms: _190  and  _191
REMARK   79  A    between atoms: _196  and  _198
REMARK   80  A    between atoms: _198  and  _199
REMARK   81  A    between atoms: _198  and  _201
REMARK   82  A    between atoms: _201  and  _202
REMARK   83  A    between atoms: _202  and  _203
REMARK   84  A    between atoms: _203  and  _204
REMARK   85  A    between atoms: _204  and  ZN_417
REMARK   86  A    between atoms: _206  and  _208
REMARK   87  A    between atoms: _208  and  _209
REMARK   88  A    between atoms: _208  and  _211
REMARK   89  A    between atoms: _211  and  _212
REMARK   90  A    between atoms: _215  and  _217
REMARK   91  A    between atoms: _217  and  _218
REMARK   92  A    between atoms: _217  and  _220
REMARK   93  A    between atoms: _220  and  _221
REMARK   94  A    between atoms: _224  and  _226
REMARK   95  A    between atoms: _226  and  _227
REMARK   96  A    between atoms: _226  and  _229
REMARK   97  A    between atoms: _229  and  _230
REMARK   98  A    between atoms: _230  and  _231
REMARK   99  A    between atoms: _231  and  _232
REMARK  100  A    between atoms: _232  and  _233
REMARK  101  A    between atoms: _237  and  _239
REMARK  102  A    between atoms: _239  and  _240
REMARK  103  A    between atoms: _239  and  _242
REMARK  104  A    between atoms: _242  and  _243
REMARK  105  A    between atoms: _249  and  _251
REMARK  106  A    between atoms: _251  and  _252
REMARK  107  A    between atoms: _251  and  _254
REMARK  108  A    between atoms: _254  and  _255
REMARK  109  A    between atoms: _261  and  _263
REMARK  110  A    between atoms: _263  and  _264
REMARK  111  A    between atoms: _267  and  _269
REMARK  112  A    between atoms: _269  and  _270
REMARK  113  A    between atoms: _269  and  _272
REMARK  114  A    between atoms: _272  and  _273
REMARK  115  A    between atoms: _273  and  _274
REMARK  116  A    between atoms: _276  and  _278
REMARK  117  A    between atoms: _278  and  _279
REMARK  118  A    between atoms: _278  and  _281
REMARK  119  A    between atoms: _281  and  _282
REMARK  120  A    between atoms: _282  and  _283
REMARK  121  A    between atoms: _283  and  _284
REMARK  122  A    between atoms: _284  and  _285
REMARK  123  A    between atoms: _289  and  _291
REMARK  124  A    between atoms: _291  and  _292
REMARK  125  A    between atoms: _291  and  _294
REMARK  126  A    between atoms: _294  and  _295
REMARK  127  A    between atoms: _300  and  _301
REMARK  128  A    between atoms: _303  and  _305
REMARK  129  A    between atoms: _305  and  _306
REMARK  130  A    between atoms: _305  and  _308
REMARK  131  A    between atoms: _308  and  _309
REMARK  132  A    between atoms: _314  and  _316
REMARK  133  A    between atoms: _316  and  _317
REMARK  134  A    between atoms: _316  and  _319
REMARK  135  A    between atoms: _319  and  _320
REMARK  136  A    between atoms: _323  and  _325
REMARK  137  A    between atoms: _325  and  _326
REMARK  138  A    between atoms: _325  and  _328
REMARK  139  A    between atoms: _331  and  _333
REMARK  140  A    between atoms: _333  and  _334
REMARK  141  A    between atoms: _333  and  _336
REMARK  142  A    between atoms: _336  and  _337
REMARK  143  A    between atoms: _342  and  _343
REMARK  144  A    between atoms: _345  and  _347
REMARK  145  A    between atoms: _347  and  _348
REMARK  146  A    between atoms: _347  and  _350
REMARK  147  A    between atoms: _350  and  _351
REMARK  148  A    between atoms: _351  and  _352
REMARK  149  A    between atoms: _352  and  _353
REMARK  150  A    between atoms: _362  and  _364
REMARK  151  A    between atoms: _364  and  _365
REMARK  152  A    between atoms: _364  and  _367
REMARK  153  A    between atoms: _367  and  _368
REMARK  154  A    between atoms: _373  and  _374
REMARK  155  A    between atoms: _376  and  _378
REMARK  156  A    between atoms: _378  and  _379
REMARK  157  A    between atoms: _378  and  _381
REMARK  158  A    between atoms: _381  and  _382
REMARK  159  A    between atoms: _385  and  _387
REMARK  160  A    between atoms: _387  and  _388
REMARK  161  A    between atoms: _387  and  _390
REMARK  162  A    between atoms: _390  and  _391
REMARK  163  A    between atoms: _393  and  _395
REMARK  164  A    between atoms: _395  and  _396
REMARK  165  A    between atoms: _395  and  _398
REMARK  166  A    between atoms: _398  and  _399
REMARK  167  A    between atoms: _405  and  _407
REMARK  168  A    between atoms: _407  and  _408
REMARK  169  A    between atoms: _407  and  _410
REMARK  170  A    between atoms: _410  and  _411
REMARK  171  A    between atoms: _411  and  _412
REMARK                            x       y       z     vdW  Elec       q    Type
REMARK                         _______ _______ _______ _____ _____    ______ ____
ROOT
ATOM      1  O   HOH     1      26.270   4.571 -37.609  0.00  0.00    +0.000 OA
ENDROOT
TORSDOF 0
REMARK  Name = ../refined-set-2016/2x8z/2x8z_pocket.pdb
REMARK  171 active torsions:
REMARK  status: ('A' for Active; 'I' for Inactive)
REMARK    1  A    between atoms: _1  and  _3
REMARK    2  A    between atoms: _3  and  _4
REMARK    3  A    between atoms: _3  and  _6
REMARK    4  A    between atoms: _6  and  _7
REMARK    5  A    between atoms: _7  and  _8
REMARK    6  A    between atoms: _11  and  _13
REMARK    7  A    between atoms: _13  and  _14
REMARK    8  A    between atoms: _13  and  _16
REMARK    9  A    between atoms: _16  and  _17
REMARK   10  A    between atoms: _22  and  _24
REMARK   11  A    between atoms: _24  and  _25
REMARK   12  A    between atoms: _24  and  _27
REMARK   13  A    between atoms: _27  and  _28
REMARK   14  A    between atoms: _38  and  _40
REMARK   15  A    between atoms: _40  and  _41
REMARK   16  A    between atoms: _40  and  _43
REMARK   17  A    between atoms: _43  and  _44
REMARK   18  A    between atoms: _44  and  _45
REMARK   19  A    between atoms: _50  and  _52
REMARK   20  A    between atoms: _52  and  _53
REMARK   21  A    between atoms: _52  and  _55
REMARK   22  A    between atoms: _55  and  _56
REMARK   23  A    between atoms: _56  and  _57
REMARK   24  A    between atoms: _62  and  _64
REMARK   25  A    between atoms: _64  and  _65
REMARK   26  A    between atoms: _64  and  _67
REMARK   27  A    between atoms: _69  and  _71
REMARK   28  A    between atoms: _71  and  _72
REMARK   29  A    between atoms: _71  and  _74
REMARK   30  A    between atoms: _74  and  _75
REMARK   31  A    between atoms: _80  and  _82
REMARK   32  A    between atoms: _82  and  _83
REMARK   33  A    between atoms: _86  and  _88
REMARK   34  A    between atoms: _88  and  _89
REMARK   35  A    between atoms: _88  and  _91
REMARK   36  A    between atoms: _91  and  _92
REMARK   37  A    between atoms: _94  and  _96
REMARK   38  A    between atoms: _96  and  _97
REMARK   39  A    between atoms: _100  and  _102
REMARK   40  A    between atoms: _102  and  _103
REMARK   41  A    between atoms: _102  and  _105
REMARK   42  A    between atoms: _105  and  _106
REMARK   43  A    between atoms: _106  and  _107
REMARK   44  A    between atoms: _112  and  _114
REMARK   45  A    between atoms: _114  and  _115
REMARK   46  A    between atoms: _114  and  _117
REMARK   47  A    between atoms: _117  and  _118
REMARK   48  A    between atoms: _118  and  _119
REMARK   49  A    between atoms: _124  and  _126
REMARK   50  A    between atoms: _126  and  _127
REMARK   51  A    between atoms: _126  and  _129
REMARK   52  A    between atoms: _129  and  _130
REMARK   53  A    between atoms: _136  and  _138
REMARK   54  A    between atoms: _138  and  _139
REMARK   55  A    between atoms: _138  and  _141
REMARK   56  A    between atoms: _141  and  _142
REMARK   57  A    between atoms: _145  and  _147
REMARK   58  A    between atoms: _147  and  _148
REMARK   59  A    between atoms: _147  and  _150
REMARK   60  A    between atoms: _153  and  _155
REMARK   61  A    between atoms: _155  and  _156
REMARK   62  A    between atoms: _155  and  _158
REMARK   63  A    between atoms: _158  and  _159
REMARK   64  A    between atoms: _163  and  ZN_417
REMARK   65  A    between atoms: _164  and  _166
REMARK   66  A    between atoms: _166  and  _167
REMARK   67  A    between atoms: _166  and  _169
REMARK   68  A    between atoms: _169  and  _170
REMARK   69  A    between atoms: _170  and  _171
REMARK   70  A    between atoms: _174  and  _176
REMARK   71  A    between atoms: _176  and  _177
REMARK   72  A    between atoms: _176  and  _179
REMARK   73  A    between atoms: _179  and  _180
REMARK   74  A    between atoms: _184  and  ZN_417
REMARK   75  A    between atoms: _185  and  _187
REMARK   76  A    between atoms: _187  and  _188
REMARK   77  A    between atoms: _187  and  _190
REMARK   78  A    between atoms: _190  and  _191
REMARK   79  A    between atoms: _196  and  _198
REMARK   80  A    between atoms: _198  and  _199
REMARK   81  A    between atoms: _198  and  _201
REMARK   82  A    between atoms: _201  and  _202
REMARK   83  A    between atoms: _202  and  _203
REMARK   84  A    between atoms: _203  and  _204
REMARK   85  A    between atoms: _204  and  ZN_417
REMARK   86  A    between atoms: _206  and  _208
REMARK   87  A    between atoms: _208  and  _209
REMARK   88  A    between atoms: _208  and  _211
REMARK   89  A    between atoms: _211  and  _212
REMARK   90  A    between atoms: _215  and  _217
REMARK   91  A    between atoms: _217  and  _218
REMARK   92  A    between atoms: _217  and  _220
REMARK   93  A    between atoms: _220  and  _221
REMARK   94  A    between atoms: _224  and  _226
REMARK   95  A    between atoms: _226  and  _227
REMARK   96  A    between atoms: _226  and  _229
REMARK   97  A    between atoms: _229  and  _230
REMARK   98  A    between atoms: _230  and  _231
REMARK   99  A    between atoms: _231  and  _232
REMARK  100  A    between atoms: _232  and  _233
REMARK  101  A    between atoms: _237  and  _239
REMARK  102  A    between atoms: _239  and  _240
REMARK  103  A    between atoms: _239  and  _242
REMARK  104  A    between atoms: _242  and  _243
REMARK  105  A    between atoms: _249  and  _251
REMARK  106  A    between atoms: _251  and  _252
REMARK  107  A    between atoms: _251  and  _254
REMARK  108  A    between atoms: _254  and  _255
REMARK  109  A    between atoms: _261  and  _263
REMARK  110  A    between atoms: _263  and  _264
REMARK  111  A    between atoms: _267  and  _269
REMARK  112  A    between atoms: _269  and  _270
REMARK  113  A    between atoms: _269  and  _272
REMARK  114  A    between atoms: _272  and  _273
REMARK  115  A    between atoms: _273  and  _274
REMARK  116  A    between atoms: _276  and  _278
REMARK  117  A    between atoms: _278  and  _279
REMARK  118  A    between atoms: _278  and  _281
REMARK  119  A    between atoms: _281  and  _282
REMARK  120  A    between atoms: _282  and  _283
REMARK  121  A    between atoms: _283  and  _284
REMARK  122  A    between atoms: _284  and  _285
REMARK  123  A    between atoms: _289  and  _291
REMARK  124  A    between atoms: _291  and  _292
REMARK  125  A    between atoms: _291  and  _294
REMARK  126  A    between atoms: _294  and  _295
REMARK  127  A    between atoms: _300  and  _301
REMARK  128  A    between atoms: _303  and  _305
REMARK  129  A    between atoms: _305  and  _306
REMARK  130  A    between atoms: _305  and  _308
REMARK  131  A    between atoms: _308  and  _309
REMARK  132  A    between atoms: _314  and  _316
REMARK  133  A    between atoms: _316  and  _317
REMARK  134  A    between atoms: _316  and  _319
REMARK  135  A    between atoms: _319  and  _320
REMARK  136  A    between atoms: _323  and  _325
REMARK  137  A    between atoms: _325  and  _326
REMARK  138  A    between atoms: _325  and  _328
REMARK  139  A    between atoms: _331  and  _333
REMARK  140  A    between atoms: _333  and  _334
REMARK  141  A    between atoms: _333  and  _336
REMARK  142  A    between atoms: _336  and  _337
REMARK  143  A    between atoms: _342  and  _343
REMARK  144  A    between atoms: _345  and  _347
REMARK  145  A    between atoms: _347  and  _348
REMARK  146  A    between atoms: _347  and  _350
REMARK  147  A    between atoms: _350  and  _351
REMARK  148  A    between atoms: _351  and  _352
REMARK  149  A    between atoms: _352  and  _353
REMARK  150  A    between atoms: _362  and  _364
REMARK  151  A    between atoms: _364  and  _365
REMARK  152  A    between atoms: _364  and  _367
REMARK  153  A    between atoms: _367  and  _368
REMARK  154  A    between atoms: _373  and  _374
REMARK  155  A    between atoms: _376  and  _378
REMARK  156  A    between atoms: _378  and  _379
REMARK  157  A    between atoms: _378  and  _381
REMARK  158  A    between atoms: _381  and  _382
REMARK  159  A    between atoms: _385  and  _387
REMARK  160  A    between atoms: _387  and  _388
REMARK  161  A    between atoms: _387  and  _390
REMARK  162  A    between atoms: _390  and  _391
REMARK  163  A    between atoms: _393  and  _395
REMARK  164  A    between atoms: _395  and  _396
REMARK  165  A    between atoms: _395  and  _398
REMARK  166  A    between atoms: _398  and  _399
REMARK  167  A    between atoms: _405  and  _407
REMARK  168  A    between atoms: _407  and  _408
REMARK  169  A    between atoms: _407  and  _410
REMARK  170  A    between atoms: _410  and  _411
REMARK  171  A    between atoms: _411  and  _412
REMARK                            x       y       z     vdW  Elec       q    Type
REMARK                         _______ _______ _______ _____ _____    ______ ____
ROOT
ATOM      1  O   HOH     1      24.094   6.321 -37.177  0.00  0.00    +0.000 OA
ENDROOT
TORSDOF 0
REMARK  Name = ../refined-set-2016/2x8z/2x8z_pocket.pdb
REMARK  171 active torsions:
REMARK  status: ('A' for Active; 'I' for Inactive)
REMARK    1  A    between atoms: _1  and  _3
REMARK    2  A    between atoms: _3  and  _4
REMARK    3  A    between atoms: _3  and  _6
REMARK    4  A    between atoms: _6  and  _7
REMARK    5  A    between atoms: _7  and  _8
REMARK    6  A    between atoms: _11  and  _13
REMARK    7  A    between atoms: _13  and  _14
REMARK    8  A    between atoms: _13  and  _16
REMARK    9  A    between atoms: _16  and  _17
REMARK   10  A    between atoms: _22  and  _24
REMARK   11  A    between atoms: _24  and  _25
REMARK   12  A    between atoms: _24  and  _27
REMARK   13  A    between atoms: _27  and  _28
REMARK   14  A    between atoms: _38  and  _40
REMARK   15  A    between atoms: _40  and  _41
REMARK   16  A    between atoms: _40  and  _43
REMARK   17  A    between atoms: _43  and  _44
REMARK   18  A    between atoms: _44  and  _45
REMARK   19  A    between atoms: _50  and  _52
REMARK   20  A    between atoms: _52  and  _53
REMARK   21  A    between atoms: _52  and  _55
REMARK   22  A    between atoms: _55  and  _56
REMARK   23  A    between atoms: _56  and  _57
REMARK   24  A    between atoms: _62  and  _64
REMARK   25  A    between atoms: _64  and  _65
REMARK   26  A    between atoms: _64  and  _67
REMARK   27  A    between atoms: _69  and  _71
REMARK   28  A    between atoms: _71  and  _72
REMARK   29  A    between atoms: _71  and  _74
REMARK   30  A    between atoms: _74  and  _75
REMARK   31  A    between atoms: _80  and  _82
REMARK   32  A    between atoms: _82  and  _83
REMARK   33  A    between atoms: _86  and  _88
REMARK   34  A    between atoms: _88  and  _89
REMARK   35  A    between atoms: _88  and  _91
REMARK   36  A    between atoms: _91  and  _92
REMARK   37  A    between atoms: _94  and  _96
REMARK   38  A    between atoms: _96  and  _97
REMARK   39  A    between atoms: _100  and  _102
REMARK   40  A    between atoms: _102  and  _103
REMARK   41  A    between atoms: _102  and  _105
REMARK   42  A    between atoms: _105  and  _106
REMARK   43  A    between atoms: _106  and  _107
REMARK   44  A    between atoms: _112  and  _114
REMARK   45  A    between atoms: _114  and  _115
REMARK   46  A    between atoms: _114  and  _117
REMARK   47  A    between atoms: _117  and  _118
REMARK   48  A    between atoms: _118  and  _119
REMARK   49  A    between atoms: _124  and  _126
REMARK   50  A    between atoms: _126  and  _127
REMARK   51  A    between atoms: _126  and  _129
REMARK   52  A    between atoms: _129  and  _130
REMARK   53  A    between atoms: _136  and  _138
REMARK   54  A    between atoms: _138  and  _139
REMARK   55  A    between atoms: _138  and  _141
REMARK   56  A    between atoms: _141  and  _142
REMARK   57  A    between atoms: _145  and  _147
REMARK   58  A    between atoms: _147  and  _148
REMARK   59  A    between atoms: _147  and  _150
REMARK   60  A    between atoms: _153  and  _155
REMARK   61  A    between atoms: _155  and  _156
REMARK   62  A    between atoms: _155  and  _158
REMARK   63  A    between atoms: _158  and  _159
REMARK   64  A    between atoms: _163  and  ZN_417
REMARK   65  A    between atoms: _164  and  _166
REMARK   66  A    between atoms: _166  and  _167
REMARK   67  A    between atoms: _166  and  _169
REMARK   68  A    between atoms: _169  and  _170
REMARK   69  A    between atoms: _170  and  _171
REMARK   70  A    between atoms: _174  and  _176
REMARK   71  A    between atoms: _176  and  _177
REMARK   72  A    between atoms: _176  and  _179
REMARK   73  A    between atoms: _179  and  _180
REMARK   74  A    between atoms: _184  and  ZN_417
REMARK   75  A    between atoms: _185  and  _187
REMARK   76  A    between atoms: _187  and  _188
REMARK   77  A    between atoms: _187  and  _190
REMARK   78  A    between atoms: _190  and  _191
REMARK   79  A    between atoms: _196  and  _198
REMARK   80  A    between atoms: _198  and  _199
REMARK   81  A    between atoms: _198  and  _201
REMARK   82  A    between atoms: _201  and  _202
REMARK   83  A    between atoms: _202  and  _203
REMARK   84  A    between atoms: _203  and  _204
REMARK   85  A    between atoms: _204  and  ZN_417
REMARK   86  A    between atoms: _206  and  _208
REMARK   87  A    between atoms: _208  and  _209
REMARK   88  A    between atoms: _208  and  _211
REMARK   89  A    between atoms: _211  and  _212
REMARK   90  A    between atoms: _215  and  _217
REMARK   91  A    between atoms: _217  and  _218
REMARK   92  A    between atoms: _217  and  _220
REMARK   93  A    between atoms: _220  and  _221
REMARK   94  A    between atoms: _224  and  _226
REMARK   95  A    between atoms: _226  and  _227
REMARK   96  A    between atoms: _226  and  _229
REMARK   97  A    between atoms: _229  and  _230
REMARK   98  A    between atoms: _230  and  _231
REMARK   99  A    between atoms: _231  and  _232
REMARK  100  A    between atoms: _232  and  _233
REMARK  101  A    between atoms: _237  and  _239
REMARK  102  A    between atoms: _239  and  _240
REMARK  103  A    between atoms: _239  and  _242
REMARK  104  A    between atoms: _242  and  _243
REMARK  105  A    between atoms: _249  and  _251
REMARK  106  A    between atoms: _251  and  _252
REMARK  107  A    between atoms: _251  and  _254
REMARK  108  A    between atoms: _254  and  _255
REMARK  109  A    between atoms: _261  and  _263
REMARK  110  A    between atoms: _263  and  _264
REMARK  111  A    between atoms: _267  and  _269
REMARK  112  A    between atoms: _269  and  _270
REMARK  113  A    between atoms: _269  and  _272
REMARK  114  A    between atoms: _272  and  _273
REMARK  115  A    between atoms: _273  and  _274
REMARK  116  A    between atoms: _276  and  _278
REMARK  117  A    between atoms: _278  and  _279
REMARK  118  A    between atoms: _278  and  _281
REMARK  119  A    between atoms: _281  and  _282
REMARK  120  A    between atoms: _282  and  _283
REMARK  121  A    between atoms: _283  and  _284
REMARK  122  A    between atoms: _284  and  _285
REMARK  123  A    between atoms: _289  and  _291
REMARK  124  A    between atoms: _291  and  _292
REMARK  125  A    between atoms: _291  and  _294
REMARK  126  A    between atoms: _294  and  _295
REMARK  127  A    between atoms: _300  and  _301
REMARK  128  A    between atoms: _303  and  _305
REMARK  129  A    between atoms: _305  and  _306
REMARK  130  A    between atoms: _305  and  _308
REMARK  131  A    between atoms: _308  and  _309
REMARK  132  A    between atoms: _314  and  _316
REMARK  133  A    between atoms: _316  and  _317
REMARK  134  A    between atoms: _316  and  _319
REMARK  135  A    between atoms: _319  and  _320
REMARK  136  A    between atoms: _323  and  _325
REMARK  137  A    between atoms: _325  and  _326
REMARK  138  A    between atoms: _325  and  _328
REMARK  139  A    between atoms: _331  and  _333
REMARK  140  A    between atoms: _333  and  _334
REMARK  141  A    between atoms: _333  and  _336
REMARK  142  A    between atoms: _336  and  _337
REMARK  143  A    between atoms: _342  and  _343
REMARK  144  A    between atoms: _345  and  _347
REMARK  145  A    between atoms: _347  and  _348
REMARK  146  A    between atoms: _347  and  _350
REMARK  147  A    between atoms: _350  and  _351
REMARK  148  A    between atoms: _351  and  _352
REMARK  149  A    between atoms: _352  and  _353
REMARK  150  A    between atoms: _362  and  _364
REMARK  151  A    between atoms: _364  and  _365
REMARK  152  A    between atoms: _364  and  _367
REMARK  153  A    between atoms: _367  and  _368
REMARK  154  A    between atoms: _373  and  _374
REMARK  155  A    between atoms: _376  and  _378
REMARK  156  A    between atoms: _378  and  _379
REMARK  157  A    between atoms: _378  and  _381
REMARK  158  A    between atoms: _381  and  _382
REMARK  159  A    between atoms: _385  and  _387
REMARK  160  A    between atoms: _387  and  _388
REMARK  161  A    between atoms: _387  and  _390
REMARK  162  A    between atoms: _390  and  _391
REMARK  163  A    between atoms: _393  and  _395
REMARK  164  A    between atoms: _395  and  _396
REMARK  165  A    between atoms: _395  and  _398
REMARK  166  A    between atoms: _398  and  _399
REMARK  167  A    between atoms: _405  and  _407
REMARK  168  A    between atoms: _407  and  _408
REMARK  169  A    between atoms: _407  and  _410
REMARK  170  A    between atoms: _410  and  _411
REMARK  171  A    between atoms: _411  and  _412
REMARK                            x       y       z     vdW  Elec       q    Type
REMARK                         _______ _______ _______ _____ _____    ______ ____
ROOT
ATOM      1  O   HOH     1      25.764  10.375 -38.891  0.00  0.00    +0.000 OA
ENDROOT
TORSDOF 0
REMARK  Name = ../refined-set-2016/2x8z/2x8z_pocket.pdb
REMARK  171 active torsions:
REMARK  status: ('A' for Active; 'I' for Inactive)
REMARK    1  A    between atoms: _1  and  _3
REMARK    2  A    between atoms: _3  and  _4
REMARK    3  A    between atoms: _3  and  _6
REMARK    4  A    between atoms: _6  and  _7
REMARK    5  A    between atoms: _7  and  _8
REMARK    6  A    between atoms: _11  and  _13
REMARK    7  A    between atoms: _13  and  _14
REMARK    8  A    between atoms: _13  and  _16
REMARK    9  A    between atoms: _16  and  _17
REMARK   10  A    between atoms: _22  and  _24
REMARK   11  A    between atoms: _24  and  _25
REMARK   12  A    between atoms: _24  and  _27
REMARK   13  A    between atoms: _27  and  _28
REMARK   14  A    between atoms: _38  and  _40
REMARK   15  A    between atoms: _40  and  _41
REMARK   16  A    between atoms: _40  and  _43
REMARK   17  A    between atoms: _43  and  _44
REMARK   18  A    between atoms: _44  and  _45
REMARK   19  A    between atoms: _50  and  _52
REMARK   20  A    between atoms: _52  and  _53
REMARK   21  A    between atoms: _52  and  _55
REMARK   22  A    between atoms: _55  and  _56
REMARK   23  A    between atoms: _56  and  _57
REMARK   24  A    between atoms: _62  and  _64
REMARK   25  A    between atoms: _64  and  _65
REMARK   26  A    between atoms: _64  and  _67
REMARK   27  A    between atoms: _69  and  _71
REMARK   28  A    between atoms: _71  and  _72
REMARK   29  A    between atoms: _71  and  _74
REMARK   30  A    between atoms: _74  and  _75
REMARK   31  A    between atoms: _80  and  _82
REMARK   32  A    between atoms: _82  and  _83
REMARK   33  A    between atoms: _86  and  _88
REMARK   34  A    between atoms: _88  and  _89
REMARK   35  A    between atoms: _88  and  _91
REMARK   36  A    between atoms: _91  and  _92
REMARK   37  A    between atoms: _94  and  _96
REMARK   38  A    between atoms: _96  and  _97
REMARK   39  A    between atoms: _100  and  _102
REMARK   40  A    between atoms: _102  and  _103
REMARK   41  A    between atoms: _102  and  _105
REMARK   42  A    between atoms: _105  and  _106
REMARK   43  A    between atoms: _106  and  _107
REMARK   44  A    between atoms: _112  and  _114
REMARK   45  A    between atoms: _114  and  _115
REMARK   46  A    between atoms: _114  and  _117
REMARK   47  A    between atoms: _117  and  _118
REMARK   48  A    between atoms: _118  and  _119
REMARK   49  A    between atoms: _124  and  _126
REMARK   50  A    between atoms: _126  and  _127
REMARK   51  A    between atoms: _126  and  _129
REMARK   52  A    between atoms: _129  and  _130
REMARK   53  A    between atoms: _136  and  _138
REMARK   54  A    between atoms: _138  and  _139
REMARK   55  A    between atoms: _138  and  _141
REMARK   56  A    between atoms: _141  and  _142
REMARK   57  A    between atoms: _145  and  _147
REMARK   58  A    between atoms: _147  and  _148
REMARK   59  A    between atoms: _147  and  _150
REMARK   60  A    between atoms: _153  and  _155
REMARK   61  A    between atoms: _155  and  _156
REMARK   62  A    between atoms: _155  and  _158
REMARK   63  A    between atoms: _158  and  _159
REMARK   64  A    between atoms: _163  and  ZN_417
REMARK   65  A    between atoms: _164  and  _166
REMARK   66  A    between atoms: _166  and  _167
REMARK   67  A    between atoms: _166  and  _169
REMARK   68  A    between atoms: _169  and  _170
REMARK   69  A    between atoms: _170  and  _171
REMARK   70  A    between atoms: _174  and  _176
REMARK   71  A    between atoms: _176  and  _177
REMARK   72  A    between atoms: _176  and  _179
REMARK   73  A    between atoms: _179  and  _180
REMARK   74  A    between atoms: _184  and  ZN_417
REMARK   75  A    between atoms: _185  and  _187
REMARK   76  A    between atoms: _187  and  _188
REMARK   77  A    between atoms: _187  and  _190
REMARK   78  A    between atoms: _190  and  _191
REMARK   79  A    between atoms: _196  and  _198
REMARK   80  A    between atoms: _198  and  _199
REMARK   81  A    between atoms: _198  and  _201
REMARK   82  A    between atoms: _201  and  _202
REMARK   83  A    between atoms: _202  and  _203
REMARK   84  A    between atoms: _203  and  _204
REMARK   85  A    between atoms: _204  and  ZN_417
REMARK   86  A    between atoms: _206  and  _208
REMARK   87  A    between atoms: _208  and  _209
REMARK   88  A    between atoms: _208  and  _211
REMARK   89  A    between atoms: _211  and  _212
REMARK   90  A    between atoms: _215  and  _217
REMARK   91  A    between atoms: _217  and  _218
REMARK   92  A    between atoms: _217  and  _220
REMARK   93  A    between atoms: _220  and  _221
REMARK   94  A    between atoms: _224  and  _226
REMARK   95  A    between atoms: _226  and  _227
REMARK   96  A    between atoms: _226  and  _229
REMARK   97  A    between atoms: _229  and  _230
REMARK   98  A    between atoms: _230  and  _231
REMARK   99  A    between atoms: _231  and  _232
REMARK  100  A    between atoms: _232  and  _233
REMARK  101  A    between atoms: _237  and  _239
REMARK  102  A    between atoms: _239  and  _240
REMARK  103  A    between atoms: _239  and  _242
REMARK  104  A    between atoms: _242  and  _243
REMARK  105  A    between atoms: _249  and  _251
REMARK  106  A    between atoms: _251  and  _252
REMARK  107  A    between atoms: _251  and  _254
REMARK  108  A    between atoms: _254  and  _255
REMARK  109  A    between atoms: _261  and  _263
REMARK  110  A    between atoms: _263  and  _264
REMARK  111  A    between atoms: _267  and  _269
REMARK  112  A    between atoms: _269  and  _270
REMARK  113  A    between atoms: _269  and  _272
REMARK  114  A    between atoms: _272  and  _273
REMARK  115  A    between atoms: _273  and  _274
REMARK  116  A    between atoms: _276  and  _278
REMARK  117  A    between atoms: _278  and  _279
REMARK  118  A    between atoms: _278  and  _281
REMARK  119  A    between atoms: _281  and  _282
REMARK  120  A    between atoms: _282  and  _283
REMARK  121  A    between atoms: _283  and  _284
REMARK  122  A    between atoms: _284  and  _285
REMARK  123  A    between atoms: _289  and  _291
REMARK  124  A    between atoms: _291  and  _292
REMARK  125  A    between atoms: _291  and  _294
REMARK  126  A    between atoms: _294  and  _295
REMARK  127  A    between atoms: _300  and  _301
REMARK  128  A    between atoms: _303  and  _305
REMARK  129  A    between atoms: _305  and  _306
REMARK  130  A    between atoms: _305  and  _308
REMARK  131  A    between atoms: _308  and  _309
REMARK  132  A    between atoms: _314  and  _316
REMARK  133  A    between atoms: _316  and  _317
REMARK  134  A    between atoms: _316  and  _319
REMARK  135  A    between atoms: _319  and  _320
REMARK  136  A    between atoms: _323  and  _325
REMARK  137  A    between atoms: _325  and  _326
REMARK  138  A    between atoms: _325  and  _328
REMARK  139  A    between atoms: _331  and  _333
REMARK  140  A    between atoms: _333  and  _334
REMARK  141  A    between atoms: _333  and  _336
REMARK  142  A    between atoms: _336  and  _337
REMARK  143  A    between atoms: _342  and  _343
REMARK  144  A    between atoms: _345  and  _347
REMARK  145  A    between atoms: _347  and  _348
REMARK  146  A    between atoms: _347  and  _350
REMARK  147  A    between atoms: _350  and  _351
REMARK  148  A    between atoms: _351  and  _352
REMARK  149  A    between atoms: _352  and  _353
REMARK  150  A    between atoms: _362  and  _364
REMARK  151  A    between atoms: _364  and  _365
REMARK  152  A    between atoms: _364  and  _367
REMARK  153  A    between atoms: _367  and  _368
REMARK  154  A    between atoms: _373  and  _374
REMARK  155  A    between atoms: _376  and  _378
REMARK  156  A    between atoms: _378  and  _379
REMARK  157  A    between atoms: _378  and  _381
REMARK  158  A    between atoms: _381  and  _382
REMARK  159  A    between atoms: _385  and  _387
REMARK  160  A    between atoms: _387  and  _388
REMARK  161  A    between atoms: _387  and  _390
REMARK  162  A    between atoms: _390  and  _391
REMARK  163  A    between atoms: _393  and  _395
REMARK  164  A    between atoms: _395  and  _396
REMARK  165  A    between atoms: _395  and  _398
REMARK  166  A    between atoms: _398  and  _399
REMARK  167  A    between atoms: _405  and  _407
REMARK  168  A    between atoms: _407  and  _408
REMARK  169  A    between atoms: _407  and  _410
REMARK  170  A    between atoms: _410  and  _411
REMARK  171  A    between atoms: _411  and  _412
REMARK                            x       y       z     vdW  Elec       q    Type
REMARK                         _______ _______ _______ _____ _____    ______ ____
ROOT
ATOM      1  O   HOH     1      24.308   0.109 -44.918  0.00  0.00    +0.000 OA
ENDROOT
TORSDOF 0
REMARK  Name = ../refined-set-2016/2x8z/2x8z_pocket.pdb
REMARK  171 active torsions:
REMARK  status: ('A' for Active; 'I' for Inactive)
REMARK    1  A    between atoms: _1  and  _3
REMARK    2  A    between atoms: _3  and  _4
REMARK    3  A    between atoms: _3  and  _6
REMARK    4  A    between atoms: _6  and  _7
REMARK    5  A    between atoms: _7  and  _8
REMARK    6  A    between atoms: _11  and  _13
REMARK    7  A    between atoms: _13  and  _14
REMARK    8  A    between atoms: _13  and  _16
REMARK    9  A    between atoms: _16  and  _17
REMARK   10  A    between atoms: _22  and  _24
REMARK   11  A    between atoms: _24  and  _25
REMARK   12  A    between atoms: _24  and  _27
REMARK   13  A    between atoms: _27  and  _28
REMARK   14  A    between atoms: _38  and  _40
REMARK   15  A    between atoms: _40  and  _41
REMARK   16  A    between atoms: _40  and  _43
REMARK   17  A    between atoms: _43  and  _44
REMARK   18  A    between atoms: _44  and  _45
REMARK   19  A    between atoms: _50  and  _52
REMARK   20  A    between atoms: _52  and  _53
REMARK   21  A    between atoms: _52  and  _55
REMARK   22  A    between atoms: _55  and  _56
REMARK   23  A    between atoms: _56  and  _57
REMARK   24  A    between atoms: _62  and  _64
REMARK   25  A    between atoms: _64  and  _65
REMARK   26  A    between atoms: _64  and  _67
REMARK   27  A    between atoms: _69  and  _71
REMARK   28  A    between atoms: _71  and  _72
REMARK   29  A    between atoms: _71  and  _74
REMARK   30  A    between atoms: _74  and  _75
REMARK   31  A    between atoms: _80  and  _82
REMARK   32  A    between atoms: _82  and  _83
REMARK   33  A    between atoms: _86  and  _88
REMARK   34  A    between atoms: _88  and  _89
REMARK   35  A    between atoms: _88  and  _91
REMARK   36  A    between atoms: _91  and  _92
REMARK   37  A    between atoms: _94  and  _96
REMARK   38  A    between atoms: _96  and  _97
REMARK   39  A    between atoms: _100  and  _102
REMARK   40  A    between atoms: _102  and  _103
REMARK   41  A    between atoms: _102  and  _105
REMARK   42  A    between atoms: _105  and  _106
REMARK   43  A    between atoms: _106  and  _107
REMARK   44  A    between atoms: _112  and  _114
REMARK   45  A    between atoms: _114  and  _115
REMARK   46  A    between atoms: _114  and  _117
REMARK   47  A    between atoms: _117  and  _118
REMARK   48  A    between atoms: _118  and  _119
REMARK   49  A    between atoms: _124  and  _126
REMARK   50  A    between atoms: _126  and  _127
REMARK   51  A    between atoms: _126  and  _129
REMARK   52  A    between atoms: _129  and  _130
REMARK   53  A    between atoms: _136  and  _138
REMARK   54  A    between atoms: _138  and  _139
REMARK   55  A    between atoms: _138  and  _141
REMARK   56  A    between atoms: _141  and  _142
REMARK   57  A    between atoms: _145  and  _147
REMARK   58  A    between atoms: _147  and  _148
REMARK   59  A    between atoms: _147  and  _150
REMARK   60  A    between atoms: _153  and  _155
REMARK   61  A    between atoms: _155  and  _156
REMARK   62  A    between atoms: _155  and  _158
REMARK   63  A    between atoms: _158  and  _159
REMARK   64  A    between atoms: _163  and  ZN_417
REMARK   65  A    between atoms: _164  and  _166
REMARK   66  A    between atoms: _166  and  _167
REMARK   67  A    between atoms: _166  and  _169
REMARK   68  A    between atoms: _169  and  _170
REMARK   69  A    between atoms: _170  and  _171
REMARK   70  A    between atoms: _174  and  _176
REMARK   71  A    between atoms: _176  and  _177
REMARK   72  A    between atoms: _176  and  _179
REMARK   73  A    between atoms: _179  and  _180
REMARK   74  A    between atoms: _184  and  ZN_417
REMARK   75  A    between atoms: _185  and  _187
REMARK   76  A    between atoms: _187  and  _188
REMARK   77  A    between atoms: _187  and  _190
REMARK   78  A    between atoms: _190  and  _191
REMARK   79  A    between atoms: _196  and  _198
REMARK   80  A    between atoms: _198  and  _199
REMARK   81  A    between atoms: _198  and  _201
REMARK   82  A    between atoms: _201  and  _202
REMARK   83  A    between atoms: _202  and  _203
REMARK   84  A    between atoms: _203  and  _204
REMARK   85  A    between atoms: _204  and  ZN_417
REMARK   86  A    between atoms: _206  and  _208
REMARK   87  A    between atoms: _208  and  _209
REMARK   88  A    between atoms: _208  and  _211
REMARK   89  A    between atoms: _211  and  _212
REMARK   90  A    between atoms: _215  and  _217
REMARK   91  A    between atoms: _217  and  _218
REMARK   92  A    between atoms: _217  and  _220
REMARK   93  A    between atoms: _220  and  _221
REMARK   94  A    between atoms: _224  and  _226
REMARK   95  A    between atoms: _226  and  _227
REMARK   96  A    between atoms: _226  and  _229
REMARK   97  A    between atoms: _229  and  _230
REMARK   98  A    between atoms: _230  and  _231
REMARK   99  A    between atoms: _231  and  _232
REMARK  100  A    between atoms: _232  and  _233
REMARK  101  A    between atoms: _237  and  _239
REMARK  102  A    between atoms: _239  and  _240
REMARK  103  A    between atoms: _239  and  _242
REMARK  104  A    between atoms: _242  and  _243
REMARK  105  A    between atoms: _249  and  _251
REMARK  106  A    between atoms: _251  and  _252
REMARK  107  A    between atoms: _251  and  _254
REMARK  108  A    between atoms: _254  and  _255
REMARK  109  A    between atoms: _261  and  _263
REMARK  110  A    between atoms: _263  and  _264
REMARK  111  A    between atoms: _267  and  _269
REMARK  112  A    between atoms: _269  and  _270
REMARK  113  A    between atoms: _269  and  _272
REMARK  114  A    between atoms: _272  and  _273
REMARK  115  A    between atoms: _273  and  _274
REMARK  116  A    between atoms: _276  and  _278
REMARK  117  A    between atoms: _278  and  _279
REMARK  118  A    between atoms: _278  and  _281
REMARK  119  A    between atoms: _281  and  _282
REMARK  120  A    between atoms: _282  and  _283
REMARK  121  A    between atoms: _283  and  _284
REMARK  122  A    between atoms: _284  and  _285
REMARK  123  A    between atoms: _289  and  _291
REMARK  124  A    between atoms: _291  and  _292
REMARK  125  A    between atoms: _291  and  _294
REMARK  126  A    between atoms: _294  and  _295
REMARK  127  A    between atoms: _300  and  _301
REMARK  128  A    between atoms: _303  and  _305
REMARK  129  A    between atoms: _305  and  _306
REMARK  130  A    between atoms: _305  and  _308
REMARK  131  A    between atoms: _308  and  _309
REMARK  132  A    between atoms: _314  and  _316
REMARK  133  A    between atoms: _316  and  _317
REMARK  134  A    between atoms: _316  and  _319
REMARK  135  A    between atoms: _319  and  _320
REMARK  136  A    between atoms: _323  and  _325
REMARK  137  A    between atoms: _325  and  _326
REMARK  138  A    between atoms: _325  and  _328
REMARK  139  A    between atoms: _331  and  _333
REMARK  140  A    between atoms: _333  and  _334
REMARK  141  A    between atoms: _333  and  _336
REMARK  142  A    between atoms: _336  and  _337
REMARK  143  A    between atoms: _342  and  _343
REMARK  144  A    between atoms: _345  and  _347
REMARK  145  A    between atoms: _347  and  _348
REMARK  146  A    between atoms: _347  and  _350
REMARK  147  A    between atoms: _350  and  _351
REMARK  148  A    between atoms: _351  and  _352
REMARK  149  A    between atoms: _352  and  _353
REMARK  150  A    between atoms: _362  and  _364
REMARK  151  A    between atoms: _364  and  _365
REMARK  152  A    between atoms: _364  and  _367
REMARK  153  A    between atoms: _367  and  _368
REMARK  154  A    between atoms: _373  and  _374
REMARK  155  A    between atoms: _376  and  _378
REMARK  156  A    between atoms: _378  and  _379
REMARK  157  A    between atoms: _378  and  _381
REMARK  158  A    between atoms: _381  and  _382
REMARK  159  A    between atoms: _385  and  _387
REMARK  160  A    between atoms: _387  and  _388
REMARK  161  A    between atoms: _387  and  _390
REMARK  162  A    between atoms: _390  and  _391
REMARK  163  A    between atoms: _393  and  _395
REMARK  164  A    between atoms: _395  and  _396
REMARK  165  A    between atoms: _395  and  _398
REMARK  166  A    between atoms: _398  and  _399
REMARK  167  A    between atoms: _405  and  _407
REMARK  168  A    between atoms: _407  and  _408
REMARK  169  A    between atoms: _407  and  _410
REMARK  170  A    between atoms: _410  and  _411
REMARK  171  A    between atoms: _411  and  _412
REMARK                            x       y       z     vdW  Elec       q    Type
REMARK                         _______ _______ _______ _____ _____    ______ ____
ROOT
ATOM      1  O   HOH     1      25.005  -2.965 -49.007  0.00  0.00    +0.000 OA
ENDROOT
TORSDOF 0
REMARK  Name = ../refined-set-2016/2x8z/2x8z_pocket.pdb
REMARK  171 active torsions:
REMARK  status: ('A' for Active; 'I' for Inactive)
REMARK    1  A    between atoms: _1  and  _3
REMARK    2  A    between atoms: _3  and  _4
REMARK    3  A    between atoms: _3  and  _6
REMARK    4  A    between atoms: _6  and  _7
REMARK    5  A    between atoms: _7  and  _8
REMARK    6  A    between atoms: _11  and  _13
REMARK    7  A    between atoms: _13  and  _14
REMARK    8  A    between atoms: _13  and  _16
REMARK    9  A    between atoms: _16  and  _17
REMARK   10  A    between atoms: _22  and  _24
REMARK   11  A    between atoms: _24  and  _25
REMARK   12  A    between atoms: _24  and  _27
REMARK   13  A    between atoms: _27  and  _28
REMARK   14  A    between atoms: _38  and  _40
REMARK   15  A    between atoms: _40  and  _41
REMARK   16  A    between atoms: _40  and  _43
REMARK   17  A    between atoms: _43  and  _44
REMARK   18  A    between atoms: _44  and  _45
REMARK   19  A    between atoms: _50  and  _52
REMARK   20  A    between atoms: _52  and  _53
REMARK   21  A    between atoms: _52  and  _55
REMARK   22  A    between atoms: _55  and  _56
REMARK   23  A    between atoms: _56  and  _57
REMARK   24  A    between atoms: _62  and  _64
REMARK   25  A    between atoms: _64  and  _65
REMARK   26  A    between atoms: _64  and  _67
REMARK   27  A    between atoms: _69  and  _71
REMARK   28  A    between atoms: _71  and  _72
REMARK   29  A    between atoms: _71  and  _74
REMARK   30  A    between atoms: _74  and  _75
REMARK   31  A    between atoms: _80  and  _82
REMARK   32  A    between atoms: _82  and  _83
REMARK   33  A    between atoms: _86  and  _88
REMARK   34  A    between atoms: _88  and  _89
REMARK   35  A    between atoms: _88  and  _91
REMARK   36  A    between atoms: _91  and  _92
REMARK   37  A    between atoms: _94  and  _96
REMARK   38  A    between atoms: _96  and  _97
REMARK   39  A    between atoms: _100  and  _102
REMARK   40  A    between atoms: _102  and  _103
REMARK   41  A    between atoms: _102  and  _105
REMARK   42  A    between atoms: _105  and  _106
REMARK   43  A    between atoms: _106  and  _107
REMARK   44  A    between atoms: _112  and  _114
REMARK   45  A    between atoms: _114  and  _115
REMARK   46  A    between atoms: _114  and  _117
REMARK   47  A    between atoms: _117  and  _118
REMARK   48  A    between atoms: _118  and  _119
REMARK   49  A    between atoms: _124  and  _126
REMARK   50  A    between atoms: _126  and  _127
REMARK   51  A    between atoms: _126  and  _129
REMARK   52  A    between atoms: _129  and  _130
REMARK   53  A    between atoms: _136  and  _138
REMARK   54  A    between atoms: _138  and  _139
REMARK   55  A    between atoms: _138  and  _141
REMARK   56  A    between atoms: _141  and  _142
REMARK   57  A    between atoms: _145  and  _147
REMARK   58  A    between atoms: _147  and  _148
REMARK   59  A    between atoms: _147  and  _150
REMARK   60  A    between atoms: _153  and  _155
REMARK   61  A    between atoms: _155  and  _156
REMARK   62  A    between atoms: _155  and  _158
REMARK   63  A    between atoms: _158  and  _159
REMARK   64  A    between atoms: _163  and  ZN_417
REMARK   65  A    between atoms: _164  and  _166
REMARK   66  A    between atoms: _166  and  _167
REMARK   67  A    between atoms: _166  and  _169
REMARK   68  A    between atoms: _169  and  _170
REMARK   69  A    between atoms: _170  and  _171
REMARK   70  A    between atoms: _174  and  _176
REMARK   71  A    between atoms: _176  and  _177
REMARK   72  A    between atoms: _176  and  _179
REMARK   73  A    between atoms: _179  and  _180
REMARK   74  A    between atoms: _184  and  ZN_417
REMARK   75  A    between atoms: _185  and  _187
REMARK   76  A    between atoms: _187  and  _188
REMARK   77  A    between atoms: _187  and  _190
REMARK   78  A    between atoms: _190  and  _191
REMARK   79  A    between atoms: _196  and  _198
REMARK   80  A    between atoms: _198  and  _199
REMARK   81  A    between atoms: _198  and  _201
REMARK   82  A    between atoms: _201  and  _202
REMARK   83  A    between atoms: _202  and  _203
REMARK   84  A    between atoms: _203  and  _204
REMARK   85  A    between atoms: _204  and  ZN_417
REMARK   86  A    between atoms: _206  and  _208
REMARK   87  A    between atoms: _208  and  _209
REMARK   88  A    between atoms: _208  and  _211
REMARK   89  A    between atoms: _211  and  _212
REMARK   90  A    between atoms: _215  and  _217
REMARK   91  A    between atoms: _217  and  _218
REMARK   92  A    between atoms: _217  and  _220
REMARK   93  A    between atoms: _220  and  _221
REMARK   94  A    between atoms: _224  and  _226
REMARK   95  A    between atoms: _226  and  _227
REMARK   96  A    between atoms: _226  and  _229
REMARK   97  A    between atoms: _229  and  _230
REMARK   98  A    between atoms: _230  and  _231
REMARK   99  A    between atoms: _231  and  _232
REMARK  100  A    between atoms: _232  and  _233
REMARK  101  A    between atoms: _237  and  _239
REMARK  102  A    between atoms: _239  and  _240
REMARK  103  A    between atoms: _239  and  _242
REMARK  104  A    between atoms: _242  and  _243
REMARK  105  A    between atoms: _249  and  _251
REMARK  106  A    between atoms: _251  and  _252
REMARK  107  A    between atoms: _251  and  _254
REMARK  108  A    between atoms: _254  and  _255
REMARK  109  A    between atoms: _261  and  _263
REMARK  110  A    between atoms: _263  and  _264
REMARK  111  A    between atoms: _267  and  _269
REMARK  112  A    between atoms: _269  and  _270
REMARK  113  A    between atoms: _269  and  _272
REMARK  114  A    between atoms: _272  and  _273
REMARK  115  A    between atoms: _273  and  _274
REMARK  116  A    between atoms: _276  and  _278
REMARK  117  A    between atoms: _278  and  _279
REMARK  118  A    between atoms: _278  and  _281
REMARK  119  A    between atoms: _281  and  _282
REMARK  120  A    between atoms: _282  and  _283
REMARK  121  A    between atoms: _283  and  _284
REMARK  122  A    between atoms: _284  and  _285
REMARK  123  A    between atoms: _289  and  _291
REMARK  124  A    between atoms: _291  and  _292
REMARK  125  A    between atoms: _291  and  _294
REMARK  126  A    between atoms: _294  and  _295
REMARK  127  A    between atoms: _300  and  _301
REMARK  128  A    between atoms: _303  and  _305
REMARK  129  A    between atoms: _305  and  _306
REMARK  130  A    between atoms: _305  and  _308
REMARK  131  A    between atoms: _308  and  _309
REMARK  132  A    between atoms: _314  and  _316
REMARK  133  A    between atoms: _316  and  _317
REMARK  134  A    between atoms: _316  and  _319
REMARK  135  A    between atoms: _319  and  _320
REMARK  136  A    between atoms: _323  and  _325
REMARK  137  A    between atoms: _325  and  _326
REMARK  138  A    between atoms: _325  and  _328
REMARK  139  A    between atoms: _331  and  _333
REMARK  140  A    between atoms: _333  and  _334
REMARK  141  A    between atoms: _333  and  _336
REMARK  142  A    between atoms: _336  and  _337
REMARK  143  A    between atoms: _342  and  _343
REMARK  144  A    between atoms: _345  and  _347
REMARK  145  A    between atoms: _347  and  _348
REMARK  146  A    between atoms: _347  and  _350
REMARK  147  A    between atoms: _350  and  _351
REMARK  148  A    between atoms: _351  and  _352
REMARK  149  A    between atoms: _352  and  _353
REMARK  150  A    between atoms: _362  and  _364
REMARK  151  A    between atoms: _364  and  _365
REMARK  152  A    between atoms: _364  and  _367
REMARK  153  A    between atoms: _367  and  _368
REMARK  154  A    between atoms: _373  and  _374
REMARK  155  A    between atoms: _376  and  _378
REMARK  156  A    between atoms: _378  and  _379
REMARK  157  A    between atoms: _378  and  _381
REMARK  158  A    between atoms: _381  and  _382
REMARK  159  A    between atoms: _385  and  _387
REMARK  160  A    between atoms: _387  and  _388
REMARK  161  A    between atoms: _387  and  _390
REMARK  162  A    between atoms: _390  and  _391
REMARK  163  A    between atoms: _393  and  _395
REMARK  164  A    between atoms: _395  and  _396
REMARK  165  A    between atoms: _395  and  _398
REMARK  166  A    between atoms: _398  and  _399
REMARK  167  A    between atoms: _405  and  _407
REMARK  168  A    between atoms: _407  and  _408
REMARK  169  A    between atoms: _407  and  _410
REMARK  170  A    between atoms: _410  and  _411
REMARK  171  A    between atoms: _411  and  _412
REMARK                            x       y       z     vdW  Elec       q    Type
REMARK                         _______ _______ _______ _____ _____    ______ ____
ROOT
ATOM      1  O   HOH     1      23.724   4.508 -50.677  0.00  0.00    +0.000 OA
ENDROOT
TORSDOF 0
REMARK  Name = ../refined-set-2016/2x8z/2x8z_pocket.pdb
REMARK  171 active torsions:
REMARK  status: ('A' for Active; 'I' for Inactive)
REMARK    1  A    between atoms: _1  and  _3
REMARK    2  A    between atoms: _3  and  _4
REMARK    3  A    between atoms: _3  and  _6
REMARK    4  A    between atoms: _6  and  _7
REMARK    5  A    between atoms: _7  and  _8
REMARK    6  A    between atoms: _11  and  _13
REMARK    7  A    between atoms: _13  and  _14
REMARK    8  A    between atoms: _13  and  _16
REMARK    9  A    between atoms: _16  and  _17
REMARK   10  A    between atoms: _22  and  _24
REMARK   11  A    between atoms: _24  and  _25
REMARK   12  A    between atoms: _24  and  _27
REMARK   13  A    between atoms: _27  and  _28
REMARK   14  A    between atoms: _38  and  _40
REMARK   15  A    between atoms: _40  and  _41
REMARK   16  A    between atoms: _40  and  _43
REMARK   17  A    between atoms: _43  and  _44
REMARK   18  A    between atoms: _44  and  _45
REMARK   19  A    between atoms: _50  and  _52
REMARK   20  A    between atoms: _52  and  _53
REMARK   21  A    between atoms: _52  and  _55
REMARK   22  A    between atoms: _55  and  _56
REMARK   23  A    between atoms: _56  and  _57
REMARK   24  A    between atoms: _62  and  _64
REMARK   25  A    between atoms: _64  and  _65
REMARK   26  A    between atoms: _64  and  _67
REMARK   27  A    between atoms: _69  and  _71
REMARK   28  A    between atoms: _71  and  _72
REMARK   29  A    between atoms: _71  and  _74
REMARK   30  A    between atoms: _74  and  _75
REMARK   31  A    between atoms: _80  and  _82
REMARK   32  A    between atoms: _82  and  _83
REMARK   33  A    between atoms: _86  and  _88
REMARK   34  A    between atoms: _88  and  _89
REMARK   35  A    between atoms: _88  and  _91
REMARK   36  A    between atoms: _91  and  _92
REMARK   37  A    between atoms: _94  and  _96
REMARK   38  A    between atoms: _96  and  _97
REMARK   39  A    between atoms: _100  and  _102
REMARK   40  A    between atoms: _102  and  _103
REMARK   41  A    between atoms: _102  and  _105
REMARK   42  A    between atoms: _105  and  _106
REMARK   43  A    between atoms: _106  and  _107
REMARK   44  A    between atoms: _112  and  _114
REMARK   45  A    between atoms: _114  and  _115
REMARK   46  A    between atoms: _114  and  _117
REMARK   47  A    between atoms: _117  and  _118
REMARK   48  A    between atoms: _118  and  _119
REMARK   49  A    between atoms: _124  and  _126
REMARK   50  A    between atoms: _126  and  _127
REMARK   51  A    between atoms: _126  and  _129
REMARK   52  A    between atoms: _129  and  _130
REMARK   53  A    between atoms: _136  and  _138
REMARK   54  A    between atoms: _138  and  _139
REMARK   55  A    between atoms: _138  and  _141
REMARK   56  A    between atoms: _141  and  _142
REMARK   57  A    between atoms: _145  and  _147
REMARK   58  A    between atoms: _147  and  _148
REMARK   59  A    between atoms: _147  and  _150
REMARK   60  A    between atoms: _153  and  _155
REMARK   61  A    between atoms: _155  and  _156
REMARK   62  A    between atoms: _155  and  _158
REMARK   63  A    between atoms: _158  and  _159
REMARK   64  A    between atoms: _163  and  ZN_417
REMARK   65  A    between atoms: _164  and  _166
REMARK   66  A    between atoms: _166  and  _167
REMARK   67  A    between atoms: _166  and  _169
REMARK   68  A    between atoms: _169  and  _170
REMARK   69  A    between atoms: _170  and  _171
REMARK   70  A    between atoms: _174  and  _176
REMARK   71  A    between atoms: _176  and  _177
REMARK   72  A    between atoms: _176  and  _179
REMARK   73  A    between atoms: _179  and  _180
REMARK   74  A    between atoms: _184  and  ZN_417
REMARK   75  A    between atoms: _185  and  _187
REMARK   76  A    between atoms: _187  and  _188
REMARK   77  A    between atoms: _187  and  _190
REMARK   78  A    between atoms: _190  and  _191
REMARK   79  A    between atoms: _196  and  _198
REMARK   80  A    between atoms: _198  and  _199
REMARK   81  A    between atoms: _198  and  _201
REMARK   82  A    between atoms: _201  and  _202
REMARK   83  A    between atoms: _202  and  _203
REMARK   84  A    between atoms: _203  and  _204
REMARK   85  A    between atoms: _204  and  ZN_417
REMARK   86  A    between atoms: _206  and  _208
REMARK   87  A    between atoms: _208  and  _209
REMARK   88  A    between atoms: _208  and  _211
REMARK   89  A    between atoms: _211  and  _212
REMARK   90  A    between atoms: _215  and  _217
REMARK   91  A    between atoms: _217  and  _218
REMARK   92  A    between atoms: _217  and  _220
REMARK   93  A    between atoms: _220  and  _221
REMARK   94  A    between atoms: _224  and  _226
REMARK   95  A    between atoms: _226  and  _227
REMARK   96  A    between atoms: _226  and  _229
REMARK   97  A    between atoms: _229  and  _230
REMARK   98  A    between atoms: _230  and  _231
REMARK   99  A    between atoms: _231  and  _232
REMARK  100  A    between atoms: _232  and  _233
REMARK  101  A    between atoms: _237  and  _239
REMARK  102  A    between atoms: _239  and  _240
REMARK  103  A    between atoms: _239  and  _242
REMARK  104  A    between atoms: _242  and  _243
REMARK  105  A    between atoms: _249  and  _251
REMARK  106  A    between atoms: _251  and  _252
REMARK  107  A    between atoms: _251  and  _254
REMARK  108  A    between atoms: _254  and  _255
REMARK  109  A    between atoms: _261  and  _263
REMARK  110  A    between atoms: _263  and  _264
REMARK  111  A    between atoms: _267  and  _269
REMARK  112  A    between atoms: _269  and  _270
REMARK  113  A    between atoms: _269  and  _272
REMARK  114  A    between atoms: _272  and  _273
REMARK  115  A    between atoms: _273  and  _274
REMARK  116  A    between atoms: _276  and  _278
REMARK  117  A    between atoms: _278  and  _279
REMARK  118  A    between atoms: _278  and  _281
REMARK  119  A    between atoms: _281  and  _282
REMARK  120  A    between atoms: _282  and  _283
REMARK  121  A    between atoms: _283  and  _284
REMARK  122  A    between atoms: _284  and  _285
REMARK  123  A    between atoms: _289  and  _291
REMARK  124  A    between atoms: _291  and  _292
REMARK  125  A    between atoms: _291  and  _294
REMARK  126  A    between atoms: _294  and  _295
REMARK  127  A    between atoms: _300  and  _301
REMARK  128  A    between atoms: _303  and  _305
REMARK  129  A    between atoms: _305  and  _306
REMARK  130  A    between atoms: _305  and  _308
REMARK  131  A    between atoms: _308  and  _309
REMARK  132  A    between atoms: _314  and  _316
REMARK  133  A    between atoms: _316  and  _317
REMARK  134  A    between atoms: _316  and  _319
REMARK  135  A    between atoms: _319  and  _320
REMARK  136  A    between atoms: _323  and  _325
REMARK  137  A    between atoms: _325  and  _326
REMARK  138  A    between atoms: _325  and  _328
REMARK  139  A    between atoms: _331  and  _333
REMARK  140  A    between atoms: _333  and  _334
REMARK  141  A    between atoms: _333  and  _336
REMARK  142  A    between atoms: _336  and  _337
REMARK  143  A    between atoms: _342  and  _343
REMARK  144  A    between atoms: _345  and  _347
REMARK  145  A    between atoms: _347  and  _348
REMARK  146  A    between atoms: _347  and  _350
REMARK  147  A    between atoms: _350  and  _351
REMARK  148  A    between atoms: _351  and  _352
REMARK  149  A    between atoms: _352  and  _353
REMARK  150  A    between atoms: _362  and  _364
REMARK  151  A    between atoms: _364  and  _365
REMARK  152  A    between atoms: _364  and  _367
REMARK  153  A    between atoms: _367  and  _368
REMARK  154  A    between atoms: _373  and  _374
REMARK  155  A    between atoms: _376  and  _378
REMARK  156  A    between atoms: _378  and  _379
REMARK  157  A    between atoms: _378  and  _381
REMARK  158  A    between atoms: _381  and  _382
REMARK  159  A    between atoms: _385  and  _387
REMARK  160  A    between atoms: _387  and  _388
REMARK  161  A    between atoms: _387  and  _390
REMARK  162  A    between atoms: _390  and  _391
REMARK  163  A    between atoms: _393  and  _395
REMARK  164  A    between atoms: _395  and  _396
REMARK  165  A    between atoms: _395  and  _398
REMARK  166  A    between atoms: _398  and  _399
REMARK  167  A    between atoms: _405  and  _407
REMARK  168  A    between atoms: _407  and  _408
REMARK  169  A    between atoms: _407  and  _410
REMARK  170  A    between atoms: _410  and  _411
REMARK  171  A    between atoms: _411  and  _412
REMARK                            x       y       z     vdW  Elec       q    Type
REMARK                         _______ _______ _______ _____ _____    ______ ____
ROOT
ATOM      1  O   HOH     1      28.752  -1.636 -50.628  0.00  0.00    +0.000 OA
ENDROOT
TORSDOF 0
REMARK  Name = ../refined-set-2016/2x8z/2x8z_pocket.pdb
REMARK  171 active torsions:
REMARK  status: ('A' for Active; 'I' for Inactive)
REMARK    1  A    between atoms: _1  and  _3
REMARK    2  A    between atoms: _3  and  _4
REMARK    3  A    between atoms: _3  and  _6
REMARK    4  A    between atoms: _6  and  _7
REMARK    5  A    between atoms: _7  and  _8
REMARK    6  A    between atoms: _11  and  _13
REMARK    7  A    between atoms: _13  and  _14
REMARK    8  A    between atoms: _13  and  _16
REMARK    9  A    between atoms: _16  and  _17
REMARK   10  A    between atoms: _22  and  _24
REMARK   11  A    between atoms: _24  and  _25
REMARK   12  A    between atoms: _24  and  _27
REMARK   13  A    between atoms: _27  and  _28
REMARK   14  A    between atoms: _38  and  _40
REMARK   15  A    between atoms: _40  and  _41
REMARK   16  A    between atoms: _40  and  _43
REMARK   17  A    between atoms: _43  and  _44
REMARK   18  A    between atoms: _44  and  _45
REMARK   19  A    between atoms: _50  and  _52
REMARK   20  A    between atoms: _52  and  _53
REMARK   21  A    between atoms: _52  and  _55
REMARK   22  A    between atoms: _55  and  _56
REMARK   23  A    between atoms: _56  and  _57
REMARK   24  A    between atoms: _62  and  _64
REMARK   25  A    between atoms: _64  and  _65
REMARK   26  A    between atoms: _64  and  _67
REMARK   27  A    between atoms: _69  and  _71
REMARK   28  A    between atoms: _71  and  _72
REMARK   29  A    between atoms: _71  and  _74
REMARK   30  A    between atoms: _74  and  _75
REMARK   31  A    between atoms: _80  and  _82
REMARK   32  A    between atoms: _82  and  _83
REMARK   33  A    between atoms: _86  and  _88
REMARK   34  A    between atoms: _88  and  _89
REMARK   35  A    between atoms: _88  and  _91
REMARK   36  A    between atoms: _91  and  _92
REMARK   37  A    between atoms: _94  and  _96
REMARK   38  A    between atoms: _96  and  _97
REMARK   39  A    between atoms: _100  and  _102
REMARK   40  A    between atoms: _102  and  _103
REMARK   41  A    between atoms: _102  and  _105
REMARK   42  A    between atoms: _105  and  _106
REMARK   43  A    between atoms: _106  and  _107
REMARK   44  A    between atoms: _112  and  _114
REMARK   45  A    between atoms: _114  and  _115
REMARK   46  A    between atoms: _114  and  _117
REMARK   47  A    between atoms: _117  and  _118
REMARK   48  A    between atoms: _118  and  _119
REMARK   49  A    between atoms: _124  and  _126
REMARK   50  A    between atoms: _126  and  _127
REMARK   51  A    between atoms: _126  and  _129
REMARK   52  A    between atoms: _129  and  _130
REMARK   53  A    between atoms: _136  and  _138
REMARK   54  A    between atoms: _138  and  _139
REMARK   55  A    between atoms: _138  and  _141
REMARK   56  A    between atoms: _141  and  _142
REMARK   57  A    between atoms: _145  and  _147
REMARK   58  A    between atoms: _147  and  _148
REMARK   59  A    between atoms: _147  and  _150
REMARK   60  A    between atoms: _153  and  _155
REMARK   61  A    between atoms: _155  and  _156
REMARK   62  A    between atoms: _155  and  _158
REMARK   63  A    between atoms: _158  and  _159
REMARK   64  A    between atoms: _163  and  ZN_417
REMARK   65  A    between atoms: _164  and  _166
REMARK   66  A    between atoms: _166  and  _167
REMARK   67  A    between atoms: _166  and  _169
REMARK   68  A    between atoms: _169  and  _170
REMARK   69  A    between atoms: _170  and  _171
REMARK   70  A    between atoms: _174  and  _176
REMARK   71  A    between atoms: _176  and  _177
REMARK   72  A    between atoms: _176  and  _179
REMARK   73  A    between atoms: _179  and  _180
REMARK   74  A    between atoms: _184  and  ZN_417
REMARK   75  A    between atoms: _185  and  _187
REMARK   76  A    between atoms: _187  and  _188
REMARK   77  A    between atoms: _187  and  _190
REMARK   78  A    between atoms: _190  and  _191
REMARK   79  A    between atoms: _196  and  _198
REMARK   80  A    between atoms: _198  and  _199
REMARK   81  A    between atoms: _198  and  _201
REMARK   82  A    between atoms: _201  and  _202
REMARK   83  A    between atoms: _202  and  _203
REMARK   84  A    between atoms: _203  and  _204
REMARK   85  A    between atoms: _204  and  ZN_417
REMARK   86  A    between atoms: _206  and  _208
REMARK   87  A    between atoms: _208  and  _209
REMARK   88  A    between atoms: _208  and  _211
REMARK   89  A    between atoms: _211  and  _212
REMARK   90  A    between atoms: _215  and  _217
REMARK   91  A    between atoms: _217  and  _218
REMARK   92  A    between atoms: _217  and  _220
REMARK   93  A    between atoms: _220  and  _221
REMARK   94  A    between atoms: _224  and  _226
REMARK   95  A    between atoms: _226  and  _227
REMARK   96  A    between atoms: _226  and  _229
REMARK   97  A    between atoms: _229  and  _230
REMARK   98  A    between atoms: _230  and  _231
REMARK   99  A    between atoms: _231  and  _232
REMARK  100  A    between atoms: _232  and  _233
REMARK  101  A    between atoms: _237  and  _239
REMARK  102  A    between atoms: _239  and  _240
REMARK  103  A    between atoms: _239  and  _242
REMARK  104  A    between atoms: _242  and  _243
REMARK  105  A    between atoms: _249  and  _251
REMARK  106  A    between atoms: _251  and  _252
REMARK  107  A    between atoms: _251  and  _254
REMARK  108  A    between atoms: _254  and  _255
REMARK  109  A    between atoms: _261  and  _263
REMARK  110  A    between atoms: _263  and  _264
REMARK  111  A    between atoms: _267  and  _269
REMARK  112  A    between atoms: _269  and  _270
REMARK  113  A    between atoms: _269  and  _272
REMARK  114  A    between atoms: _272  and  _273
REMARK  115  A    between atoms: _273  and  _274
REMARK  116  A    between atoms: _276  and  _278
REMARK  117  A    between atoms: _278  and  _279
REMARK  118  A    between atoms: _278  and  _281
REMARK  119  A    between atoms: _281  and  _282
REMARK  120  A    between atoms: _282  and  _283
REMARK  121  A    between atoms: _283  and  _284
REMARK  122  A    between atoms: _284  and  _285
REMARK  123  A    between atoms: _289  and  _291
REMARK  124  A    between atoms: _291  and  _292
REMARK  125  A    between atoms: _291  and  _294
REMARK  126  A    between atoms: _294  and  _295
REMARK  127  A    between atoms: _300  and  _301
REMARK  128  A    between atoms: _303  and  _305
REMARK  129  A    between atoms: _305  and  _306
REMARK  130  A    between atoms: _305  and  _308
REMARK  131  A    between atoms: _308  and  _309
REMARK  132  A    between atoms: _314  and  _316
REMARK  133  A    between atoms: _316  and  _317
REMARK  134  A    between atoms: _316  and  _319
REMARK  135  A    between atoms: _319  and  _320
REMARK  136  A    between atoms: _323  and  _325
REMARK  137  A    between atoms: _325  and  _326
REMARK  138  A    between atoms: _325  and  _328
REMARK  139  A    between atoms: _331  and  _333
REMARK  140  A    between atoms: _333  and  _334
REMARK  141  A    between atoms: _333  and  _336
REMARK  142  A    between atoms: _336  and  _337
REMARK  143  A    between atoms: _342  and  _343
REMARK  144  A    between atoms: _345  and  _347
REMARK  145  A    between atoms: _347  and  _348
REMARK  146  A    between atoms: _347  and  _350
REMARK  147  A    between atoms: _350  and  _351
REMARK  148  A    between atoms: _351  and  _352
REMARK  149  A    between atoms: _352  and  _353
REMARK  150  A    between atoms: _362  and  _364
REMARK  151  A    between atoms: _364  and  _365
REMARK  152  A    between atoms: _364  and  _367
REMARK  153  A    between atoms: _367  and  _368
REMARK  154  A    between atoms: _373  and  _374
REMARK  155  A    between atoms: _376  and  _378
REMARK  156  A    between atoms: _378  and  _379
REMARK  157  A    between atoms: _378  and  _381
REMARK  158  A    between atoms: _381  and  _382
REMARK  159  A    between atoms: _385  and  _387
REMARK  160  A    between atoms: _387  and  _388
REMARK  161  A    between atoms: _387  and  _390
REMARK  162  A    between atoms: _390  and  _391
REMARK  163  A    between atoms: _393  and  _395
REMARK  164  A    between atoms: _395  and  _396
REMARK  165  A    between atoms: _395  and  _398
REMARK  166  A    between atoms: _398  and  _399
REMARK  167  A    between atoms: _405  and  _407
REMARK  168  A    between atoms: _407  and  _408
REMARK  169  A    between atoms: _407  and  _410
REMARK  170  A    between atoms: _410  and  _411
REMARK  171  A    between atoms: _411  and  _412
REMARK                            x       y       z     vdW  Elec       q    Type
REMARK                         _______ _______ _______ _____ _____    ______ ____
ROOT
ATOM      1  O   HOH     1      25.560  10.647 -46.986  0.00  0.00    +0.000 OA
ENDROOT
TORSDOF 0
REMARK  Name = ../refined-set-2016/2x8z/2x8z_pocket.pdb
REMARK  171 active torsions:
REMARK  status: ('A' for Active; 'I' for Inactive)
REMARK    1  A    between atoms: _1  and  _3
REMARK    2  A    between atoms: _3  and  _4
REMARK    3  A    between atoms: _3  and  _6
REMARK    4  A    between atoms: _6  and  _7
REMARK    5  A    between atoms: _7  and  _8
REMARK    6  A    between atoms: _11  and  _13
REMARK    7  A    between atoms: _13  and  _14
REMARK    8  A    between atoms: _13  and  _16
REMARK    9  A    between atoms: _16  and  _17
REMARK   10  A    between atoms: _22  and  _24
REMARK   11  A    between atoms: _24  and  _25
REMARK   12  A    between atoms: _24  and  _27
REMARK   13  A    between atoms: _27  and  _28
REMARK   14  A    between atoms: _38  and  _40
REMARK   15  A    between atoms: _40  and  _41
REMARK   16  A    between atoms: _40  and  _43
REMARK   17  A    between atoms: _43  and  _44
REMARK   18  A    between atoms: _44  and  _45
REMARK   19  A    between atoms: _50  and  _52
REMARK   20  A    between atoms: _52  and  _53
REMARK   21  A    between atoms: _52  and  _55
REMARK   22  A    between atoms: _55  and  _56
REMARK   23  A    between atoms: _56  and  _57
REMARK   24  A    between atoms: _62  and  _64
REMARK   25  A    between atoms: _64  and  _65
REMARK   26  A    between atoms: _64  and  _67
REMARK   27  A    between atoms: _69  and  _71
REMARK   28  A    between atoms: _71  and  _72
REMARK   29  A    between atoms: _71  and  _74
REMARK   30  A    between atoms: _74  and  _75
REMARK   31  A    between atoms: _80  and  _82
REMARK   32  A    between atoms: _82  and  _83
REMARK   33  A    between atoms: _86  and  _88
REMARK   34  A    between atoms: _88  and  _89
REMARK   35  A    between atoms: _88  and  _91
REMARK   36  A    between atoms: _91  and  _92
REMARK   37  A    between atoms: _94  and  _96
REMARK   38  A    between atoms: _96  and  _97
REMARK   39  A    between atoms: _100  and  _102
REMARK   40  A    between atoms: _102  and  _103
REMARK   41  A    between atoms: _102  and  _105
REMARK   42  A    between atoms: _105  and  _106
REMARK   43  A    between atoms: _106  and  _107
REMARK   44  A    between atoms: _112  and  _114
REMARK   45  A    between atoms: _114  and  _115
REMARK   46  A    between atoms: _114  and  _117
REMARK   47  A    between atoms: _117  and  _118
REMARK   48  A    between atoms: _118  and  _119
REMARK   49  A    between atoms: _124  and  _126
REMARK   50  A    between atoms: _126  and  _127
REMARK   51  A    between atoms: _126  and  _129
REMARK   52  A    between atoms: _129  and  _130
REMARK   53  A    between atoms: _136  and  _138
REMARK   54  A    between atoms: _138  and  _139
REMARK   55  A    between atoms: _138  and  _141
REMARK   56  A    between atoms: _141  and  _142
REMARK   57  A    between atoms: _145  and  _147
REMARK   58  A    between atoms: _147  and  _148
REMARK   59  A    between atoms: _147  and  _150
REMARK   60  A    between atoms: _153  and  _155
REMARK   61  A    between atoms: _155  and  _156
REMARK   62  A    between atoms: _155  and  _158
REMARK   63  A    between atoms: _158  and  _159
REMARK   64  A    between atoms: _163  and  ZN_417
REMARK   65  A    between atoms: _164  and  _166
REMARK   66  A    between atoms: _166  and  _167
REMARK   67  A    between atoms: _166  and  _169
REMARK   68  A    between atoms: _169  and  _170
REMARK   69  A    between atoms: _170  and  _171
REMARK   70  A    between atoms: _174  and  _176
REMARK   71  A    between atoms: _176  and  _177
REMARK   72  A    between atoms: _176  and  _179
REMARK   73  A    between atoms: _179  and  _180
REMARK   74  A    between atoms: _184  and  ZN_417
REMARK   75  A    between atoms: _185  and  _187
REMARK   76  A    between atoms: _187  and  _188
REMARK   77  A    between atoms: _187  and  _190
REMARK   78  A    between atoms: _190  and  _191
REMARK   79  A    between atoms: _196  and  _198
REMARK   80  A    between atoms: _198  and  _199
REMARK   81  A    between atoms: _198  and  _201
REMARK   82  A    between atoms: _201  and  _202
REMARK   83  A    between atoms: _202  and  _203
REMARK   84  A    between atoms: _203  and  _204
REMARK   85  A    between atoms: _204  and  ZN_417
REMARK   86  A    between atoms: _206  and  _208
REMARK   87  A    between atoms: _208  and  _209
REMARK   88  A    between atoms: _208  and  _211
REMARK   89  A    between atoms: _211  and  _212
REMARK   90  A    between atoms: _215  and  _217
REMARK   91  A    between atoms: _217  and  _218
REMARK   92  A    between atoms: _217  and  _220
REMARK   93  A    between atoms: _220  and  _221
REMARK   94  A    between atoms: _224  and  _226
REMARK   95  A    between atoms: _226  and  _227
REMARK   96  A    between atoms: _226  and  _229
REMARK   97  A    between atoms: _229  and  _230
REMARK   98  A    between atoms: _230  and  _231
REMARK   99  A    between atoms: _231  and  _232
REMARK  100  A    between atoms: _232  and  _233
REMARK  101  A    between atoms: _237  and  _239
REMARK  102  A    between atoms: _239  and  _240
REMARK  103  A    between atoms: _239  and  _242
REMARK  104  A    between atoms: _242  and  _243
REMARK  105  A    between atoms: _249  and  _251
REMARK  106  A    between atoms: _251  and  _252
REMARK  107  A    between atoms: _251  and  _254
REMARK  108  A    between atoms: _254  and  _255
REMARK  109  A    between atoms: _261  and  _263
REMARK  110  A    between atoms: _263  and  _264
REMARK  111  A    between atoms: _267  and  _269
REMARK  112  A    between atoms: _269  and  _270
REMARK  113  A    between atoms: _269  and  _272
REMARK  114  A    between atoms: _272  and  _273
REMARK  115  A    between atoms: _273  and  _274
REMARK  116  A    between atoms: _276  and  _278
REMARK  117  A    between atoms: _278  and  _279
REMARK  118  A    between atoms: _278  and  _281
REMARK  119  A    between atoms: _281  and  _282
REMARK  120  A    between atoms: _282  and  _283
REMARK  121  A    between atoms: _283  and  _284
REMARK  122  A    between atoms: _284  and  _285
REMARK  123  A    between atoms: _289  and  _291
REMARK  124  A    between atoms: _291  and  _292
REMARK  125  A    between atoms: _291  and  _294
REMARK  126  A    between atoms: _294  and  _295
REMARK  127  A    between atoms: _300  and  _301
REMARK  128  A    between atoms: _303  and  _305
REMARK  129  A    between atoms: _305  and  _306
REMARK  130  A    between atoms: _305  and  _308
REMARK  131  A    between atoms: _308  and  _309
REMARK  132  A    between atoms: _314  and  _316
REMARK  133  A    between atoms: _316  and  _317
REMARK  134  A    between atoms: _316  and  _319
REMARK  135  A    between atoms: _319  and  _320
REMARK  136  A    between atoms: _323  and  _325
REMARK  137  A    between atoms: _325  and  _326
REMARK  138  A    between atoms: _325  and  _328
REMARK  139  A    between atoms: _331  and  _333
REMARK  140  A    between atoms: _333  and  _334
REMARK  141  A    between atoms: _333  and  _336
REMARK  142  A    between atoms: _336  and  _337
REMARK  143  A    between atoms: _342  and  _343
REMARK  144  A    between atoms: _345  and  _347
REMARK  145  A    between atoms: _347  and  _348
REMARK  146  A    between atoms: _347  and  _350
REMARK  147  A    between atoms: _350  and  _351
REMARK  148  A    between atoms: _351  and  _352
REMARK  149  A    between atoms: _352  and  _353
REMARK  150  A    between atoms: _362  and  _364
REMARK  151  A    between atoms: _364  and  _365
REMARK  152  A    between atoms: _364  and  _367
REMARK  153  A    between atoms: _367  and  _368
REMARK  154  A    between atoms: _373  and  _374
REMARK  155  A    between atoms: _376  and  _378
REMARK  156  A    between atoms: _378  and  _379
REMARK  157  A    between atoms: _378  and  _381
REMARK  158  A    between atoms: _381  and  _382
REMARK  159  A    between atoms: _385  and  _387
REMARK  160  A    between atoms: _387  and  _388
REMARK  161  A    between atoms: _387  and  _390
REMARK  162  A    between atoms: _390  and  _391
REMARK  163  A    between atoms: _393  and  _395
REMARK  164  A    between atoms: _395  and  _396
REMARK  165  A    between atoms: _395  and  _398
REMARK  166  A    between atoms: _398  and  _399
REMARK  167  A    between atoms: _405  and  _407
REMARK  168  A    between atoms: _407  and  _408
REMARK  169  A    between atoms: _407  and  _410
REMARK  170  A    between atoms: _410  and  _411
REMARK  171  A    between atoms: _411  and  _412
REMARK                            x       y       z     vdW  Elec       q    Type
REMARK                         _______ _______ _______ _____ _____    ______ ____
ROOT
ATOM      1  O   HOH     1      29.028   9.246 -46.636  0.00  0.00    +0.000 OA
ENDROOT
TORSDOF 0
REMARK  Name = ../refined-set-2016/2x8z/2x8z_pocket.pdb
REMARK  171 active torsions:
REMARK  status: ('A' for Active; 'I' for Inactive)
REMARK    1  A    between atoms: _1  and  _3
REMARK    2  A    between atoms: _3  and  _4
REMARK    3  A    between atoms: _3  and  _6
REMARK    4  A    between atoms: _6  and  _7
REMARK    5  A    between atoms: _7  and  _8
REMARK    6  A    between atoms: _11  and  _13
REMARK    7  A    between atoms: _13  and  _14
REMARK    8  A    between atoms: _13  and  _16
REMARK    9  A    between atoms: _16  and  _17
REMARK   10  A    between atoms: _22  and  _24
REMARK   11  A    between atoms: _24  and  _25
REMARK   12  A    between atoms: _24  and  _27
REMARK   13  A    between atoms: _27  and  _28
REMARK   14  A    between atoms: _38  and  _40
REMARK   15  A    between atoms: _40  and  _41
REMARK   16  A    between atoms: _40  and  _43
REMARK   17  A    between atoms: _43  and  _44
REMARK   18  A    between atoms: _44  and  _45
REMARK   19  A    between atoms: _50  and  _52
REMARK   20  A    between atoms: _52  and  _53
REMARK   21  A    between atoms: _52  and  _55
REMARK   22  A    between atoms: _55  and  _56
REMARK   23  A    between atoms: _56  and  _57
REMARK   24  A    between atoms: _62  and  _64
REMARK   25  A    between atoms: _64  and  _65
REMARK   26  A    between atoms: _64  and  _67
REMARK   27  A    between atoms: _69  and  _71
REMARK   28  A    between atoms: _71  and  _72
REMARK   29  A    between atoms: _71  and  _74
REMARK   30  A    between atoms: _74  and  _75
REMARK   31  A    between atoms: _80  and  _82
REMARK   32  A    between atoms: _82  and  _83
REMARK   33  A    between atoms: _86  and  _88
REMARK   34  A    between atoms: _88  and  _89
REMARK   35  A    between atoms: _88  and  _91
REMARK   36  A    between atoms: _91  and  _92
REMARK   37  A    between atoms: _94  and  _96
REMARK   38  A    between atoms: _96  and  _97
REMARK   39  A    between atoms: _100  and  _102
REMARK   40  A    between atoms: _102  and  _103
REMARK   41  A    between atoms: _102  and  _105
REMARK   42  A    between atoms: _105  and  _106
REMARK   43  A    between atoms: _106  and  _107
REMARK   44  A    between atoms: _112  and  _114
REMARK   45  A    between atoms: _114  and  _115
REMARK   46  A    between atoms: _114  and  _117
REMARK   47  A    between atoms: _117  and  _118
REMARK   48  A    between atoms: _118  and  _119
REMARK   49  A    between atoms: _124  and  _126
REMARK   50  A    between atoms: _126  and  _127
REMARK   51  A    between atoms: _126  and  _129
REMARK   52  A    between atoms: _129  and  _130
REMARK   53  A    between atoms: _136  and  _138
REMARK   54  A    between atoms: _138  and  _139
REMARK   55  A    between atoms: _138  and  _141
REMARK   56  A    between atoms: _141  and  _142
REMARK   57  A    between atoms: _145  and  _147
REMARK   58  A    between atoms: _147  and  _148
REMARK   59  A    between atoms: _147  and  _150
REMARK   60  A    between atoms: _153  and  _155
REMARK   61  A    between atoms: _155  and  _156
REMARK   62  A    between atoms: _155  and  _158
REMARK   63  A    between atoms: _158  and  _159
REMARK   64  A    between atoms: _163  and  ZN_417
REMARK   65  A    between atoms: _164  and  _166
REMARK   66  A    between atoms: _166  and  _167
REMARK   67  A    between atoms: _166  and  _169
REMARK   68  A    between atoms: _169  and  _170
REMARK   69  A    between atoms: _170  and  _171
REMARK   70  A    between atoms: _174  and  _176
REMARK   71  A    between atoms: _176  and  _177
REMARK   72  A    between atoms: _176  and  _179
REMARK   73  A    between atoms: _179  and  _180
REMARK   74  A    between atoms: _184  and  ZN_417
REMARK   75  A    between atoms: _185  and  _187
REMARK   76  A    between atoms: _187  and  _188
REMARK   77  A    between atoms: _187  and  _190
REMARK   78  A    between atoms: _190  and  _191
REMARK   79  A    between atoms: _196  and  _198
REMARK   80  A    between atoms: _198  and  _199
REMARK   81  A    between atoms: _198  and  _201
REMARK   82  A    between atoms: _201  and  _202
REMARK   83  A    between atoms: _202  and  _203
REMARK   84  A    between atoms: _203  and  _204
REMARK   85  A    between atoms: _204  and  ZN_417
REMARK   86  A    between atoms: _206  and  _208
REMARK   87  A    between atoms: _208  and  _209
REMARK   88  A    between atoms: _208  and  _211
REMARK   89  A    between atoms: _211  and  _212
REMARK   90  A    between atoms: _215  and  _217
REMARK   91  A    between atoms: _217  and  _218
REMARK   92  A    between atoms: _217  and  _220
REMARK   93  A    between atoms: _220  and  _221
REMARK   94  A    between atoms: _224  and  _226
REMARK   95  A    between atoms: _226  and  _227
REMARK   96  A    between atoms: _226  and  _229
REMARK   97  A    between atoms: _229  and  _230
REMARK   98  A    between atoms: _230  and  _231
REMARK   99  A    between atoms: _231  and  _232
REMARK  100  A    between atoms: _232  and  _233
REMARK  101  A    between atoms: _237  and  _239
REMARK  102  A    between atoms: _239  and  _240
REMARK  103  A    between atoms: _239  and  _242
REMARK  104  A    between atoms: _242  and  _243
REMARK  105  A    between atoms: _249  and  _251
REMARK  106  A    between atoms: _251  and  _252
REMARK  107  A    between atoms: _251  and  _254
REMARK  108  A    between atoms: _254  and  _255
REMARK  109  A    between atoms: _261  and  _263
REMARK  110  A    between atoms: _263  and  _264
REMARK  111  A    between atoms: _267  and  _269
REMARK  112  A    between atoms: _269  and  _270
REMARK  113  A    between atoms: _269  and  _272
REMARK  114  A    between atoms: _272  and  _273
REMARK  115  A    between atoms: _273  and  _274
REMARK  116  A    between atoms: _276  and  _278
REMARK  117  A    between atoms: _278  and  _279
REMARK  118  A    between atoms: _278  and  _281
REMARK  119  A    between atoms: _281  and  _282
REMARK  120  A    between atoms: _282  and  _283
REMARK  121  A    between atoms: _283  and  _284
REMARK  122  A    between atoms: _284  and  _285
REMARK  123  A    between atoms: _289  and  _291
REMARK  124  A    between atoms: _291  and  _292
REMARK  125  A    between atoms: _291  and  _294
REMARK  126  A    between atoms: _294  and  _295
REMARK  127  A    between atoms: _300  and  _301
REMARK  128  A    between atoms: _303  and  _305
REMARK  129  A    between atoms: _305  and  _306
REMARK  130  A    between atoms: _305  and  _308
REMARK  131  A    between atoms: _308  and  _309
REMARK  132  A    between atoms: _314  and  _316
REMARK  133  A    between atoms: _316  and  _317
REMARK  134  A    between atoms: _316  and  _319
REMARK  135  A    between atoms: _319  and  _320
REMARK  136  A    between atoms: _323  and  _325
REMARK  137  A    between atoms: _325  and  _326
REMARK  138  A    between atoms: _325  and  _328
REMARK  139  A    between atoms: _331  and  _333
REMARK  140  A    between atoms: _333  and  _334
REMARK  141  A    between atoms: _333  and  _336
REMARK  142  A    between atoms: _336  and  _337
REMARK  143  A    between atoms: _342  and  _343
REMARK  144  A    between atoms: _345  and  _347
REMARK  145  A    between atoms: _347  and  _348
REMARK  146  A    between atoms: _347  and  _350
REMARK  147  A    between atoms: _350  and  _351
REMARK  148  A    between atoms: _351  and  _352
REMARK  149  A    between atoms: _352  and  _353
REMARK  150  A    between atoms: _362  and  _364
REMARK  151  A    between atoms: _364  and  _365
REMARK  152  A    between atoms: _364  and  _367
REMARK  153  A    between atoms: _367  and  _368
REMARK  154  A    between atoms: _373  and  _374
REMARK  155  A    between atoms: _376  and  _378
REMARK  156  A    between atoms: _378  and  _379
REMARK  157  A    between atoms: _378  and  _381
REMARK  158  A    between atoms: _381  and  _382
REMARK  159  A    between atoms: _385  and  _387
REMARK  160  A    between atoms: _387  and  _388
REMARK  161  A    between atoms: _387  and  _390
REMARK  162  A    between atoms: _390  and  _391
REMARK  163  A    between atoms: _393  and  _395
REMARK  164  A    between atoms: _395  and  _396
REMARK  165  A    between atoms: _395  and  _398
REMARK  166  A    between atoms: _398  and  _399
REMARK  167  A    between atoms: _405  and  _407
REMARK  168  A    between atoms: _407  and  _408
REMARK  169  A    between atoms: _407  and  _410
REMARK  170  A    between atoms: _410  and  _411
REMARK  171  A    between atoms: _411  and  _412
REMARK                            x       y       z     vdW  Elec       q    Type
REMARK                         _______ _______ _______ _____ _____    ______ ____
ROOT
ATOM      1  O   HOH     1      30.172  12.029 -46.389  0.00  0.00    +0.000 OA
ENDROOT
TORSDOF 0
REMARK  Name = ../refined-set-2016/2x8z/2x8z_pocket.pdb
REMARK  171 active torsions:
REMARK  status: ('A' for Active; 'I' for Inactive)
REMARK    1  A    between atoms: _1  and  _3
REMARK    2  A    between atoms: _3  and  _4
REMARK    3  A    between atoms: _3  and  _6
REMARK    4  A    between atoms: _6  and  _7
REMARK    5  A    between atoms: _7  and  _8
REMARK    6  A    between atoms: _11  and  _13
REMARK    7  A    between atoms: _13  and  _14
REMARK    8  A    between atoms: _13  and  _16
REMARK    9  A    between atoms: _16  and  _17
REMARK   10  A    between atoms: _22  and  _24
REMARK   11  A    between atoms: _24  and  _25
REMARK   12  A    between atoms: _24  and  _27
REMARK   13  A    between atoms: _27  and  _28
REMARK   14  A    between atoms: _38  and  _40
REMARK   15  A    between atoms: _40  and  _41
REMARK   16  A    between atoms: _40  and  _43
REMARK   17  A    between atoms: _43  and  _44
REMARK   18  A    between atoms: _44  and  _45
REMARK   19  A    between atoms: _50  and  _52
REMARK   20  A    between atoms: _52  and  _53
REMARK   21  A    between atoms: _52  and  _55
REMARK   22  A    between atoms: _55  and  _56
REMARK   23  A    between atoms: _56  and  _57
REMARK   24  A    between atoms: _62  and  _64
REMARK   25  A    between atoms: _64  and  _65
REMARK   26  A    between atoms: _64  and  _67
REMARK   27  A    between atoms: _69  and  _71
REMARK   28  A    between atoms: _71  and  _72
REMARK   29  A    between atoms: _71  and  _74
REMARK   30  A    between atoms: _74  and  _75
REMARK   31  A    between atoms: _80  and  _82
REMARK   32  A    between atoms: _82  and  _83
REMARK   33  A    between atoms: _86  and  _88
REMARK   34  A    between atoms: _88  and  _89
REMARK   35  A    between atoms: _88  and  _91
REMARK   36  A    between atoms: _91  and  _92
REMARK   37  A    between atoms: _94  and  _96
REMARK   38  A    between atoms: _96  and  _97
REMARK   39  A    between atoms: _100  and  _102
REMARK   40  A    between atoms: _102  and  _103
REMARK   41  A    between atoms: _102  and  _105
REMARK   42  A    between atoms: _105  and  _106
REMARK   43  A    between atoms: _106  and  _107
REMARK   44  A    between atoms: _112  and  _114
REMARK   45  A    between atoms: _114  and  _115
REMARK   46  A    between atoms: _114  and  _117
REMARK   47  A    between atoms: _117  and  _118
REMARK   48  A    between atoms: _118  and  _119
REMARK   49  A    between atoms: _124  and  _126
REMARK   50  A    between atoms: _126  and  _127
REMARK   51  A    between atoms: _126  and  _129
REMARK   52  A    between atoms: _129  and  _130
REMARK   53  A    between atoms: _136  and  _138
REMARK   54  A    between atoms: _138  and  _139
REMARK   55  A    between atoms: _138  and  _141
REMARK   56  A    between atoms: _141  and  _142
REMARK   57  A    between atoms: _145  and  _147
REMARK   58  A    between atoms: _147  and  _148
REMARK   59  A    between atoms: _147  and  _150
REMARK   60  A    between atoms: _153  and  _155
REMARK   61  A    between atoms: _155  and  _156
REMARK   62  A    between atoms: _155  and  _158
REMARK   63  A    between atoms: _158  and  _159
REMARK   64  A    between atoms: _163  and  ZN_417
REMARK   65  A    between atoms: _164  and  _166
REMARK   66  A    between atoms: _166  and  _167
REMARK   67  A    between atoms: _166  and  _169
REMARK   68  A    between atoms: _169  and  _170
REMARK   69  A    between atoms: _170  and  _171
REMARK   70  A    between atoms: _174  and  _176
REMARK   71  A    between atoms: _176  and  _177
REMARK   72  A    between atoms: _176  and  _179
REMARK   73  A    between atoms: _179  and  _180
REMARK   74  A    between atoms: _184  and  ZN_417
REMARK   75  A    between atoms: _185  and  _187
REMARK   76  A    between atoms: _187  and  _188
REMARK   77  A    between atoms: _187  and  _190
REMARK   78  A    between atoms: _190  and  _191
REMARK   79  A    between atoms: _196  and  _198
REMARK   80  A    between atoms: _198  and  _199
REMARK   81  A    between atoms: _198  and  _201
REMARK   82  A    between atoms: _201  and  _202
REMARK   83  A    between atoms: _202  and  _203
REMARK   84  A    between atoms: _203  and  _204
REMARK   85  A    between atoms: _204  and  ZN_417
REMARK   86  A    between atoms: _206  and  _208
REMARK   87  A    between atoms: _208  and  _209
REMARK   88  A    between atoms: _208  and  _211
REMARK   89  A    between atoms: _211  and  _212
REMARK   90  A    between atoms: _215  and  _217
REMARK   91  A    between atoms: _217  and  _218
REMARK   92  A    between atoms: _217  and  _220
REMARK   93  A    between atoms: _220  and  _221
REMARK   94  A    between atoms: _224  and  _226
REMARK   95  A    between atoms: _226  and  _227
REMARK   96  A    between atoms: _226  and  _229
REMARK   97  A    between atoms: _229  and  _230
REMARK   98  A    between atoms: _230  and  _231
REMARK   99  A    between atoms: _231  and  _232
REMARK  100  A    between atoms: _232  and  _233
REMARK  101  A    between atoms: _237  and  _239
REMARK  102  A    between atoms: _239  and  _240
REMARK  103  A    between atoms: _239  and  _242
REMARK  104  A    between atoms: _242  and  _243
REMARK  105  A    between atoms: _249  and  _251
REMARK  106  A    between atoms: _251  and  _252
REMARK  107  A    between atoms: _251  and  _254
REMARK  108  A    between atoms: _254  and  _255
REMARK  109  A    between atoms: _261  and  _263
REMARK  110  A    between atoms: _263  and  _264
REMARK  111  A    between atoms: _267  and  _269
REMARK  112  A    between atoms: _269  and  _270
REMARK  113  A    between atoms: _269  and  _272
REMARK  114  A    between atoms: _272  and  _273
REMARK  115  A    between atoms: _273  and  _274
REMARK  116  A    between atoms: _276  and  _278
REMARK  117  A    between atoms: _278  and  _279
REMARK  118  A    between atoms: _278  and  _281
REMARK  119  A    between atoms: _281  and  _282
REMARK  120  A    between atoms: _282  and  _283
REMARK  121  A    between atoms: _283  and  _284
REMARK  122  A    between atoms: _284  and  _285
REMARK  123  A    between atoms: _289  and  _291
REMARK  124  A    between atoms: _291  and  _292
REMARK  125  A    between atoms: _291  and  _294
REMARK  126  A    between atoms: _294  and  _295
REMARK  127  A    between atoms: _300  and  _301
REMARK  128  A    between atoms: _303  and  _305
REMARK  129  A    between atoms: _305  and  _306
REMARK  130  A    between atoms: _305  and  _308
REMARK  131  A    between atoms: _308  and  _309
REMARK  132  A    between atoms: _314  and  _316
REMARK  133  A    between atoms: _316  and  _317
REMARK  134  A    between atoms: _316  and  _319
REMARK  135  A    between atoms: _319  and  _320
REMARK  136  A    between atoms: _323  and  _325
REMARK  137  A    between atoms: _325  and  _326
REMARK  138  A    between atoms: _325  and  _328
REMARK  139  A    between atoms: _331  and  _333
REMARK  140  A    between atoms: _333  and  _334
REMARK  141  A    between atoms: _333  and  _336
REMARK  142  A    between atoms: _336  and  _337
REMARK  143  A    between atoms: _342  and  _343
REMARK  144  A    between atoms: _345  and  _347
REMARK  145  A    between atoms: _347  and  _348
REMARK  146  A    between atoms: _347  and  _350
REMARK  147  A    between atoms: _350  and  _351
REMARK  148  A    between atoms: _351  and  _352
REMARK  149  A    between atoms: _352  and  _353
REMARK  150  A    between atoms: _362  and  _364
REMARK  151  A    between atoms: _364  and  _365
REMARK  152  A    between atoms: _364  and  _367
REMARK  153  A    between atoms: _367  and  _368
REMARK  154  A    between atoms: _373  and  _374
REMARK  155  A    between atoms: _376  and  _378
REMARK  156  A    between atoms: _378  and  _379
REMARK  157  A    between atoms: _378  and  _381
REMARK  158  A    between atoms: _381  and  _382
REMARK  159  A    between atoms: _385  and  _387
REMARK  160  A    between atoms: _387  and  _388
REMARK  161  A    between atoms: _387  and  _390
REMARK  162  A    between atoms: _390  and  _391
REMARK  163  A    between atoms: _393  and  _395
REMARK  164  A    between atoms: _395  and  _396
REMARK  165  A    between atoms: _395  and  _398
REMARK  166  A    between atoms: _398  and  _399
REMARK  167  A    between atoms: _405  and  _407
REMARK  168  A    between atoms: _407  and  _408
REMARK  169  A    between atoms: _407  and  _410
REMARK  170  A    between atoms: _410  and  _411
REMARK  171  A    between atoms: _411  and  _412
REMARK                            x       y       z     vdW  Elec       q    Type
REMARK                         _______ _______ _______ _____ _____    ______ ____
ROOT
ATOM      1  O   HOH     1      33.358   3.027 -36.615  0.00  0.00    +0.000 OA
ENDROOT
TORSDOF 0
REMARK  Name = ../refined-set-2016/2x8z/2x8z_pocket.pdb
REMARK  171 active torsions:
REMARK  status: ('A' for Active; 'I' for Inactive)
REMARK    1  A    between atoms: _1  and  _3
REMARK    2  A    between atoms: _3  and  _4
REMARK    3  A    between atoms: _3  and  _6
REMARK    4  A    between atoms: _6  and  _7
REMARK    5  A    between atoms: _7  and  _8
REMARK    6  A    between atoms: _11  and  _13
REMARK    7  A    between atoms: _13  and  _14
REMARK    8  A    between atoms: _13  and  _16
REMARK    9  A    between atoms: _16  and  _17
REMARK   10  A    between atoms: _22  and  _24
REMARK   11  A    between atoms: _24  and  _25
REMARK   12  A    between atoms: _24  and  _27
REMARK   13  A    between atoms: _27  and  _28
REMARK   14  A    between atoms: _38  and  _40
REMARK   15  A    between atoms: _40  and  _41
REMARK   16  A    between atoms: _40  and  _43
REMARK   17  A    between atoms: _43  and  _44
REMARK   18  A    between atoms: _44  and  _45
REMARK   19  A    between atoms: _50  and  _52
REMARK   20  A    between atoms: _52  and  _53
REMARK   21  A    between atoms: _52  and  _55
REMARK   22  A    between atoms: _55  and  _56
REMARK   23  A    between atoms: _56  and  _57
REMARK   24  A    between atoms: _62  and  _64
REMARK   25  A    between atoms: _64  and  _65
REMARK   26  A    between atoms: _64  and  _67
REMARK   27  A    between atoms: _69  and  _71
REMARK   28  A    between atoms: _71  and  _72
REMARK   29  A    between atoms: _71  and  _74
REMARK   30  A    between atoms: _74  and  _75
REMARK   31  A    between atoms: _80  and  _82
REMARK   32  A    between atoms: _82  and  _83
REMARK   33  A    between atoms: _86  and  _88
REMARK   34  A    between atoms: _88  and  _89
REMARK   35  A    between atoms: _88  and  _91
REMARK   36  A    between atoms: _91  and  _92
REMARK   37  A    between atoms: _94  and  _96
REMARK   38  A    between atoms: _96  and  _97
REMARK   39  A    between atoms: _100  and  _102
REMARK   40  A    between atoms: _102  and  _103
REMARK   41  A    between atoms: _102  and  _105
REMARK   42  A    between atoms: _105  and  _106
REMARK   43  A    between atoms: _106  and  _107
REMARK   44  A    between atoms: _112  and  _114
REMARK   45  A    between atoms: _114  and  _115
REMARK   46  A    between atoms: _114  and  _117
REMARK   47  A    between atoms: _117  and  _118
REMARK   48  A    between atoms: _118  and  _119
REMARK   49  A    between atoms: _124  and  _126
REMARK   50  A    between atoms: _126  and  _127
REMARK   51  A    between atoms: _126  and  _129
REMARK   52  A    between atoms: _129  and  _130
REMARK   53  A    between atoms: _136  and  _138
REMARK   54  A    between atoms: _138  and  _139
REMARK   55  A    between atoms: _138  and  _141
REMARK   56  A    between atoms: _141  and  _142
REMARK   57  A    between atoms: _145  and  _147
REMARK   58  A    between atoms: _147  and  _148
REMARK   59  A    between atoms: _147  and  _150
REMARK   60  A    between atoms: _153  and  _155
REMARK   61  A    between atoms: _155  and  _156
REMARK   62  A    between atoms: _155  and  _158
REMARK   63  A    between atoms: _158  and  _159
REMARK   64  A    between atoms: _163  and  ZN_417
REMARK   65  A    between atoms: _164  and  _166
REMARK   66  A    between atoms: _166  and  _167
REMARK   67  A    between atoms: _166  and  _169
REMARK   68  A    between atoms: _169  and  _170
REMARK   69  A    between atoms: _170  and  _171
REMARK   70  A    between atoms: _174  and  _176
REMARK   71  A    between atoms: _176  and  _177
REMARK   72  A    between atoms: _176  and  _179
REMARK   73  A    between atoms: _179  and  _180
REMARK   74  A    between atoms: _184  and  ZN_417
REMARK   75  A    between atoms: _185  and  _187
REMARK   76  A    between atoms: _187  and  _188
REMARK   77  A    between atoms: _187  and  _190
REMARK   78  A    between atoms: _190  and  _191
REMARK   79  A    between atoms: _196  and  _198
REMARK   80  A    between atoms: _198  and  _199
REMARK   81  A    between atoms: _198  and  _201
REMARK   82  A    between atoms: _201  and  _202
REMARK   83  A    between atoms: _202  and  _203
REMARK   84  A    between atoms: _203  and  _204
REMARK   85  A    between atoms: _204  and  ZN_417
REMARK   86  A    between atoms: _206  and  _208
REMARK   87  A    between atoms: _208  and  _209
REMARK   88  A    between atoms: _208  and  _211
REMARK   89  A    between atoms: _211  and  _212
REMARK   90  A    between atoms: _215  and  _217
REMARK   91  A    between atoms: _217  and  _218
REMARK   92  A    between atoms: _217  and  _220
REMARK   93  A    between atoms: _220  and  _221
REMARK   94  A    between atoms: _224  and  _226
REMARK   95  A    between atoms: _226  and  _227
REMARK   96  A    between atoms: _226  and  _229
REMARK   97  A    between atoms: _229  and  _230
REMARK   98  A    between atoms: _230  and  _231
REMARK   99  A    between atoms: _231  and  _232
REMARK  100  A    between atoms: _232  and  _233
REMARK  101  A    between atoms: _237  and  _239
REMARK  102  A    between atoms: _239  and  _240
REMARK  103  A    between atoms: _239  and  _242
REMARK  104  A    between atoms: _242  and  _243
REMARK  105  A    between atoms: _249  and  _251
REMARK  106  A    between atoms: _251  and  _252
REMARK  107  A    between atoms: _251  and  _254
REMARK  108  A    between atoms: _254  and  _255
REMARK  109  A    between atoms: _261  and  _263
REMARK  110  A    between atoms: _263  and  _264
REMARK  111  A    between atoms: _267  and  _269
REMARK  112  A    between atoms: _269  and  _270
REMARK  113  A    between atoms: _269  and  _272
REMARK  114  A    between atoms: _272  and  _273
REMARK  115  A    between atoms: _273  and  _274
REMARK  116  A    between atoms: _276  and  _278
REMARK  117  A    between atoms: _278  and  _279
REMARK  118  A    between atoms: _278  and  _281
REMARK  119  A    between atoms: _281  and  _282
REMARK  120  A    between atoms: _282  and  _283
REMARK  121  A    between atoms: _283  and  _284
REMARK  122  A    between atoms: _284  and  _285
REMARK  123  A    between atoms: _289  and  _291
REMARK  124  A    between atoms: _291  and  _292
REMARK  125  A    between atoms: _291  and  _294
REMARK  126  A    between atoms: _294  and  _295
REMARK  127  A    between atoms: _300  and  _301
REMARK  128  A    between atoms: _303  and  _305
REMARK  129  A    between atoms: _305  and  _306
REMARK  130  A    between atoms: _305  and  _308
REMARK  131  A    between atoms: _308  and  _309
REMARK  132  A    between atoms: _314  and  _316
REMARK  133  A    between atoms: _316  and  _317
REMARK  134  A    between atoms: _316  and  _319
REMARK  135  A    between atoms: _319  and  _320
REMARK  136  A    between atoms: _323  and  _325
REMARK  137  A    between atoms: _325  and  _326
REMARK  138  A    between atoms: _325  and  _328
REMARK  139  A    between atoms: _331  and  _333
REMARK  140  A    between atoms: _333  and  _334
REMARK  141  A    between atoms: _333  and  _336
REMARK  142  A    between atoms: _336  and  _337
REMARK  143  A    between atoms: _342  and  _343
REMARK  144  A    between atoms: _345  and  _347
REMARK  145  A    between atoms: _347  and  _348
REMARK  146  A    between atoms: _347  and  _350
REMARK  147  A    between atoms: _350  and  _351
REMARK  148  A    between atoms: _351  and  _352
REMARK  149  A    between atoms: _352  and  _353
REMARK  150  A    between atoms: _362  and  _364
REMARK  151  A    between atoms: _364  and  _365
REMARK  152  A    between atoms: _364  and  _367
REMARK  153  A    between atoms: _367  and  _368
REMARK  154  A    between atoms: _373  and  _374
REMARK  155  A    between atoms: _376  and  _378
REMARK  156  A    between atoms: _378  and  _379
REMARK  157  A    between atoms: _378  and  _381
REMARK  158  A    between atoms: _381  and  _382
REMARK  159  A    between atoms: _385  and  _387
REMARK  160  A    between atoms: _387  and  _388
REMARK  161  A    between atoms: _387  and  _390
REMARK  162  A    between atoms: _390  and  _391
REMARK  163  A    between atoms: _393  and  _395
REMARK  164  A    between atoms: _395  and  _396
REMARK  165  A    between atoms: _395  and  _398
REMARK  166  A    between atoms: _398  and  _399
REMARK  167  A    between atoms: _405  and  _407
REMARK  168  A    between atoms: _407  and  _408
REMARK  169  A    between atoms: _407  and  _410
REMARK  170  A    between atoms: _410  and  _411
REMARK  171  A    between atoms: _411  and  _412
REMARK                            x       y       z     vdW  Elec       q    Type
REMARK                         _______ _______ _______ _____ _____    ______ ____
ROOT
ATOM      1  O   HOH     1      25.946  -2.523 -39.392  0.00  0.00    +0.000 OA
ENDROOT
TORSDOF 0
REMARK  Name = ../refined-set-2016/2x8z/2x8z_pocket.pdb
REMARK  171 active torsions:
REMARK  status: ('A' for Active; 'I' for Inactive)
REMARK    1  A    between atoms: _1  and  _3
REMARK    2  A    between atoms: _3  and  _4
REMARK    3  A    between atoms: _3  and  _6
REMARK    4  A    between atoms: _6  and  _7
REMARK    5  A    between atoms: _7  and  _8
REMARK    6  A    between atoms: _11  and  _13
REMARK    7  A    between atoms: _13  and  _14
REMARK    8  A    between atoms: _13  and  _16
REMARK    9  A    between atoms: _16  and  _17
REMARK   10  A    between atoms: _22  and  _24
REMARK   11  A    between atoms: _24  and  _25
REMARK   12  A    between atoms: _24  and  _27
REMARK   13  A    between atoms: _27  and  _28
REMARK   14  A    between atoms: _38  and  _40
REMARK   15  A    between atoms: _40  and  _41
REMARK   16  A    between atoms: _40  and  _43
REMARK   17  A    between atoms: _43  and  _44
REMARK   18  A    between atoms: _44  and  _45
REMARK   19  A    between atoms: _50  and  _52
REMARK   20  A    between atoms: _52  and  _53
REMARK   21  A    between atoms: _52  and  _55
REMARK   22  A    between atoms: _55  and  _56
REMARK   23  A    between atoms: _56  and  _57
REMARK   24  A    between atoms: _62  and  _64
REMARK   25  A    between atoms: _64  and  _65
REMARK   26  A    between atoms: _64  and  _67
REMARK   27  A    between atoms: _69  and  _71
REMARK   28  A    between atoms: _71  and  _72
REMARK   29  A    between atoms: _71  and  _74
REMARK   30  A    between atoms: _74  and  _75
REMARK   31  A    between atoms: _80  and  _82
REMARK   32  A    between atoms: _82  and  _83
REMARK   33  A    between atoms: _86  and  _88
REMARK   34  A    between atoms: _88  and  _89
REMARK   35  A    between atoms: _88  and  _91
REMARK   36  A    between atoms: _91  and  _92
REMARK   37  A    between atoms: _94  and  _96
REMARK   38  A    between atoms: _96  and  _97
REMARK   39  A    between atoms: _100  and  _102
REMARK   40  A    between atoms: _102  and  _103
REMARK   41  A    between atoms: _102  and  _105
REMARK   42  A    between atoms: _105  and  _106
REMARK   43  A    between atoms: _106  and  _107
REMARK   44  A    between atoms: _112  and  _114
REMARK   45  A    between atoms: _114  and  _115
REMARK   46  A    between atoms: _114  and  _117
REMARK   47  A    between atoms: _117  and  _118
REMARK   48  A    between atoms: _118  and  _119
REMARK   49  A    between atoms: _124  and  _126
REMARK   50  A    between atoms: _126  and  _127
REMARK   51  A    between atoms: _126  and  _129
REMARK   52  A    between atoms: _129  and  _130
REMARK   53  A    between atoms: _136  and  _138
REMARK   54  A    between atoms: _138  and  _139
REMARK   55  A    between atoms: _138  and  _141
REMARK   56  A    between atoms: _141  and  _142
REMARK   57  A    between atoms: _145  and  _147
REMARK   58  A    between atoms: _147  and  _148
REMARK   59  A    between atoms: _147  and  _150
REMARK   60  A    between atoms: _153  and  _155
REMARK   61  A    between atoms: _155  and  _156
REMARK   62  A    between atoms: _155  and  _158
REMARK   63  A    between atoms: _158  and  _159
REMARK   64  A    between atoms: _163  and  ZN_417
REMARK   65  A    between atoms: _164  and  _166
REMARK   66  A    between atoms: _166  and  _167
REMARK   67  A    between atoms: _166  and  _169
REMARK   68  A    between atoms: _169  and  _170
REMARK   69  A    between atoms: _170  and  _171
REMARK   70  A    between atoms: _174  and  _176
REMARK   71  A    between atoms: _176  and  _177
REMARK   72  A    between atoms: _176  and  _179
REMARK   73  A    between atoms: _179  and  _180
REMARK   74  A    between atoms: _184  and  ZN_417
REMARK   75  A    between atoms: _185  and  _187
REMARK   76  A    between atoms: _187  and  _188
REMARK   77  A    between atoms: _187  and  _190
REMARK   78  A    between atoms: _190  and  _191
REMARK   79  A    between atoms: _196  and  _198
REMARK   80  A    between atoms: _198  and  _199
REMARK   81  A    between atoms: _198  and  _201
REMARK   82  A    between atoms: _201  and  _202
REMARK   83  A    between atoms: _202  and  _203
REMARK   84  A    between atoms: _203  and  _204
REMARK   85  A    between atoms: _204  and  ZN_417
REMARK   86  A    between atoms: _206  and  _208
REMARK   87  A    between atoms: _208  and  _209
REMARK   88  A    between atoms: _208  and  _211
REMARK   89  A    between atoms: _211  and  _212
REMARK   90  A    between atoms: _215  and  _217
REMARK   91  A    between atoms: _217  and  _218
REMARK   92  A    between atoms: _217  and  _220
REMARK   93  A    between atoms: _220  and  _221
REMARK   94  A    between atoms: _224  and  _226
REMARK   95  A    between atoms: _226  and  _227
REMARK   96  A    between atoms: _226  and  _229
REMARK   97  A    between atoms: _229  and  _230
REMARK   98  A    between atoms: _230  and  _231
REMARK   99  A    between atoms: _231  and  _232
REMARK  100  A    between atoms: _232  and  _233
REMARK  101  A    between atoms: _237  and  _239
REMARK  102  A    between atoms: _239  and  _240
REMARK  103  A    between atoms: _239  and  _242
REMARK  104  A    between atoms: _242  and  _243
REMARK  105  A    between atoms: _249  and  _251
REMARK  106  A    between atoms: _251  and  _252
REMARK  107  A    between atoms: _251  and  _254
REMARK  108  A    between atoms: _254  and  _255
REMARK  109  A    between atoms: _261  and  _263
REMARK  110  A    between atoms: _263  and  _264
REMARK  111  A    between atoms: _267  and  _269
REMARK  112  A    between atoms: _269  and  _270
REMARK  113  A    between atoms: _269  and  _272
REMARK  114  A    between atoms: _272  and  _273
REMARK  115  A    between atoms: _273  and  _274
REMARK  116  A    between atoms: _276  and  _278
REMARK  117  A    between atoms: _278  and  _279
REMARK  118  A    between atoms: _278  and  _281
REMARK  119  A    between atoms: _281  and  _282
REMARK  120  A    between atoms: _282  and  _283
REMARK  121  A    between atoms: _283  and  _284
REMARK  122  A    between atoms: _284  and  _285
REMARK  123  A    between atoms: _289  and  _291
REMARK  124  A    between atoms: _291  and  _292
REMARK  125  A    between atoms: _291  and  _294
REMARK  126  A    between atoms: _294  and  _295
REMARK  127  A    between atoms: _300  and  _301
REMARK  128  A    between atoms: _303  and  _305
REMARK  129  A    between atoms: _305  and  _306
REMARK  130  A    between atoms: _305  and  _308
REMARK  131  A    between atoms: _308  and  _309
REMARK  132  A    between atoms: _314  and  _316
REMARK  133  A    between atoms: _316  and  _317
REMARK  134  A    between atoms: _316  and  _319
REMARK  135  A    between atoms: _319  and  _320
REMARK  136  A    between atoms: _323  and  _325
REMARK  137  A    between atoms: _325  and  _326
REMARK  138  A    between atoms: _325  and  _328
REMARK  139  A    between atoms: _331  and  _333
REMARK  140  A    between atoms: _333  and  _334
REMARK  141  A    between atoms: _333  and  _336
REMARK  142  A    between atoms: _336  and  _337
REMARK  143  A    between atoms: _342  and  _343
REMARK  144  A    between atoms: _345  and  _347
REMARK  145  A    between atoms: _347  and  _348
REMARK  146  A    between atoms: _347  and  _350
REMARK  147  A    between atoms: _350  and  _351
REMARK  148  A    between atoms: _351  and  _352
REMARK  149  A    between atoms: _352  and  _353
REMARK  150  A    between atoms: _362  and  _364
REMARK  151  A    between atoms: _364  and  _365
REMARK  152  A    between atoms: _364  and  _367
REMARK  153  A    between atoms: _367  and  _368
REMARK  154  A    between atoms: _373  and  _374
REMARK  155  A    between atoms: _376  and  _378
REMARK  156  A    between atoms: _378  and  _379
REMARK  157  A    between atoms: _378  and  _381
REMARK  158  A    between atoms: _381  and  _382
REMARK  159  A    between atoms: _385  and  _387
REMARK  160  A    between atoms: _387  and  _388
REMARK  161  A    between atoms: _387  and  _390
REMARK  162  A    between atoms: _390  and  _391
REMARK  163  A    between atoms: _393  and  _395
REMARK  164  A    between atoms: _395  and  _396
REMARK  165  A    between atoms: _395  and  _398
REMARK  166  A    between atoms: _398  and  _399
REMARK  167  A    between atoms: _405  and  _407
REMARK  168  A    between atoms: _407  and  _408
REMARK  169  A    between atoms: _407  and  _410
REMARK  170  A    between atoms: _410  and  _411
REMARK  171  A    between atoms: _411  and  _412
REMARK                            x       y       z     vdW  Elec       q    Type
REMARK                         _______ _______ _______ _____ _____    ______ ____
ROOT
ATOM      1  O   HOH     1      29.044  -1.311 -46.493  0.00  0.00    +0.000 OA
ENDROOT
TORSDOF 0
REMARK  Name = ../refined-set-2016/2x8z/2x8z_pocket.pdb
REMARK  171 active torsions:
REMARK  status: ('A' for Active; 'I' for Inactive)
REMARK    1  A    between atoms: _1  and  _3
REMARK    2  A    between atoms: _3  and  _4
REMARK    3  A    between atoms: _3  and  _6
REMARK    4  A    between atoms: _6  and  _7
REMARK    5  A    between atoms: _7  and  _8
REMARK    6  A    between atoms: _11  and  _13
REMARK    7  A    between atoms: _13  and  _14
REMARK    8  A    between atoms: _13  and  _16
REMARK    9  A    between atoms: _16  and  _17
REMARK   10  A    between atoms: _22  and  _24
REMARK   11  A    between atoms: _24  and  _25
REMARK   12  A    between atoms: _24  and  _27
REMARK   13  A    between atoms: _27  and  _28
REMARK   14  A    between atoms: _38  and  _40
REMARK   15  A    between atoms: _40  and  _41
REMARK   16  A    between atoms: _40  and  _43
REMARK   17  A    between atoms: _43  and  _44
REMARK   18  A    between atoms: _44  and  _45
REMARK   19  A    between atoms: _50  and  _52
REMARK   20  A    between atoms: _52  and  _53
REMARK   21  A    between atoms: _52  and  _55
REMARK   22  A    between atoms: _55  and  _56
REMARK   23  A    between atoms: _56  and  _57
REMARK   24  A    between atoms: _62  and  _64
REMARK   25  A    between atoms: _64  and  _65
REMARK   26  A    between atoms: _64  and  _67
REMARK   27  A    between atoms: _69  and  _71
REMARK   28  A    between atoms: _71  and  _72
REMARK   29  A    between atoms: _71  and  _74
REMARK   30  A    between atoms: _74  and  _75
REMARK   31  A    between atoms: _80  and  _82
REMARK   32  A    between atoms: _82  and  _83
REMARK   33  A    between atoms: _86  and  _88
REMARK   34  A    between atoms: _88  and  _89
REMARK   35  A    between atoms: _88  and  _91
REMARK   36  A    between atoms: _91  and  _92
REMARK   37  A    between atoms: _94  and  _96
REMARK   38  A    between atoms: _96  and  _97
REMARK   39  A    between atoms: _100  and  _102
REMARK   40  A    between atoms: _102  and  _103
REMARK   41  A    between atoms: _102  and  _105
REMARK   42  A    between atoms: _105  and  _106
REMARK   43  A    between atoms: _106  and  _107
REMARK   44  A    between atoms: _112  and  _114
REMARK   45  A    between atoms: _114  and  _115
REMARK   46  A    between atoms: _114  and  _117
REMARK   47  A    between atoms: _117  and  _118
REMARK   48  A    between atoms: _118  and  _119
REMARK   49  A    between atoms: _124  and  _126
REMARK   50  A    between atoms: _126  and  _127
REMARK   51  A    between atoms: _126  and  _129
REMARK   52  A    between atoms: _129  and  _130
REMARK   53  A    between atoms: _136  and  _138
REMARK   54  A    between atoms: _138  and  _139
REMARK   55  A    between atoms: _138  and  _141
REMARK   56  A    between atoms: _141  and  _142
REMARK   57  A    between atoms: _145  and  _147
REMARK   58  A    between atoms: _147  and  _148
REMARK   59  A    between atoms: _147  and  _150
REMARK   60  A    between atoms: _153  and  _155
REMARK   61  A    between atoms: _155  and  _156
REMARK   62  A    between atoms: _155  and  _158
REMARK   63  A    between atoms: _158  and  _159
REMARK   64  A    between atoms: _163  and  ZN_417
REMARK   65  A    between atoms: _164  and  _166
REMARK   66  A    between atoms: _166  and  _167
REMARK   67  A    between atoms: _166  and  _169
REMARK   68  A    between atoms: _169  and  _170
REMARK   69  A    between atoms: _170  and  _171
REMARK   70  A    between atoms: _174  and  _176
REMARK   71  A    between atoms: _176  and  _177
REMARK   72  A    between atoms: _176  and  _179
REMARK   73  A    between atoms: _179  and  _180
REMARK   74  A    between atoms: _184  and  ZN_417
REMARK   75  A    between atoms: _185  and  _187
REMARK   76  A    between atoms: _187  and  _188
REMARK   77  A    between atoms: _187  and  _190
REMARK   78  A    between atoms: _190  and  _191
REMARK   79  A    between atoms: _196  and  _198
REMARK   80  A    between atoms: _198  and  _199
REMARK   81  A    between atoms: _198  and  _201
REMARK   82  A    between atoms: _201  and  _202
REMARK   83  A    between atoms: _202  and  _203
REMARK   84  A    between atoms: _203  and  _204
REMARK   85  A    between atoms: _204  and  ZN_417
REMARK   86  A    between atoms: _206  and  _208
REMARK   87  A    between atoms: _208  and  _209
REMARK   88  A    between atoms: _208  and  _211
REMARK   89  A    between atoms: _211  and  _212
REMARK   90  A    between atoms: _215  and  _217
REMARK   91  A    between atoms: _217  and  _218
REMARK   92  A    between atoms: _217  and  _220
REMARK   93  A    between atoms: _220  and  _221
REMARK   94  A    between atoms: _224  and  _226
REMARK   95  A    between atoms: _226  and  _227
REMARK   96  A    between atoms: _226  and  _229
REMARK   97  A    between atoms: _229  and  _230
REMARK   98  A    between atoms: _230  and  _231
REMARK   99  A    between atoms: _231  and  _232
REMARK  100  A    between atoms: _232  and  _233
REMARK  101  A    between atoms: _237  and  _239
REMARK  102  A    between atoms: _239  and  _240
REMARK  103  A    between atoms: _239  and  _242
REMARK  104  A    between atoms: _242  and  _243
REMARK  105  A    between atoms: _249  and  _251
REMARK  106  A    between atoms: _251  and  _252
REMARK  107  A    between atoms: _251  and  _254
REMARK  108  A    between atoms: _254  and  _255
REMARK  109  A    between atoms: _261  and  _263
REMARK  110  A    between atoms: _263  and  _264
REMARK  111  A    between atoms: _267  and  _269
REMARK  112  A    between atoms: _269  and  _270
REMARK  113  A    between atoms: _269  and  _272
REMARK  114  A    between atoms: _272  and  _273
REMARK  115  A    between atoms: _273  and  _274
REMARK  116  A    between atoms: _276  and  _278
REMARK  117  A    between atoms: _278  and  _279
REMARK  118  A    between atoms: _278  and  _281
REMARK  119  A    between atoms: _281  and  _282
REMARK  120  A    between atoms: _282  and  _283
REMARK  121  A    between atoms: _283  and  _284
REMARK  122  A    between atoms: _284  and  _285
REMARK  123  A    between atoms: _289  and  _291
REMARK  124  A    between atoms: _291  and  _292
REMARK  125  A    between atoms: _291  and  _294
REMARK  126  A    between atoms: _294  and  _295
REMARK  127  A    between atoms: _300  and  _301
REMARK  128  A    between atoms: _303  and  _305
REMARK  129  A    between atoms: _305  and  _306
REMARK  130  A    between atoms: _305  and  _308
REMARK  131  A    between atoms: _308  and  _309
REMARK  132  A    between atoms: _314  and  _316
REMARK  133  A    between atoms: _316  and  _317
REMARK  134  A    between atoms: _316  and  _319
REMARK  135  A    between atoms: _319  and  _320
REMARK  136  A    between atoms: _323  and  _325
REMARK  137  A    between atoms: _325  and  _326
REMARK  138  A    between atoms: _325  and  _328
REMARK  139  A    between atoms: _331  and  _333
REMARK  140  A    between atoms: _333  and  _334
REMARK  141  A    between atoms: _333  and  _336
REMARK  142  A    between atoms: _336  and  _337
REMARK  143  A    between atoms: _342  and  _343
REMARK  144  A    between atoms: _345  and  _347
REMARK  145  A    between atoms: _347  and  _348
REMARK  146  A    between atoms: _347  and  _350
REMARK  147  A    between atoms: _350  and  _351
REMARK  148  A    between atoms: _351  and  _352
REMARK  149  A    between atoms: _352  and  _353
REMARK  150  A    between atoms: _362  and  _364
REMARK  151  A    between atoms: _364  and  _365
REMARK  152  A    between atoms: _364  and  _367
REMARK  153  A    between atoms: _367  and  _368
REMARK  154  A    between atoms: _373  and  _374
REMARK  155  A    between atoms: _376  and  _378
REMARK  156  A    between atoms: _378  and  _379
REMARK  157  A    between atoms: _378  and  _381
REMARK  158  A    between atoms: _381  and  _382
REMARK  159  A    between atoms: _385  and  _387
REMARK  160  A    between atoms: _387  and  _388
REMARK  161  A    between atoms: _387  and  _390
REMARK  162  A    between atoms: _390  and  _391
REMARK  163  A    between atoms: _393  and  _395
REMARK  164  A    between atoms: _395  and  _396
REMARK  165  A    between atoms: _395  and  _398
REMARK  166  A    between atoms: _398  and  _399
REMARK  167  A    between atoms: _405  and  _407
REMARK  168  A    between atoms: _407  and  _408
REMARK  169  A    between atoms: _407  and  _410
REMARK  170  A    between atoms: _410  and  _411
REMARK  171  A    between atoms: _411  and  _412
REMARK                            x       y       z     vdW  Elec       q    Type
REMARK                         _______ _______ _______ _____ _____    ______ ____
ROOT
ATOM      1  O   HOH     1      29.478   6.562 -49.481  0.00  0.00    +0.000 OA
ENDROOT
TORSDOF 0
REMARK  Name = ../refined-set-2016/2x8z/2x8z_pocket.pdb
REMARK  171 active torsions:
REMARK  status: ('A' for Active; 'I' for Inactive)
REMARK    1  A    between atoms: _1  and  _3
REMARK    2  A    between atoms: _3  and  _4
REMARK    3  A    between atoms: _3  and  _6
REMARK    4  A    between atoms: _6  and  _7
REMARK    5  A    between atoms: _7  and  _8
REMARK    6  A    between atoms: _11  and  _13
REMARK    7  A    between atoms: _13  and  _14
REMARK    8  A    between atoms: _13  and  _16
REMARK    9  A    between atoms: _16  and  _17
REMARK   10  A    between atoms: _22  and  _24
REMARK   11  A    between atoms: _24  and  _25
REMARK   12  A    between atoms: _24  and  _27
REMARK   13  A    between atoms: _27  and  _28
REMARK   14  A    between atoms: _38  and  _40
REMARK   15  A    between atoms: _40  and  _41
REMARK   16  A    between atoms: _40  and  _43
REMARK   17  A    between atoms: _43  and  _44
REMARK   18  A    between atoms: _44  and  _45
REMARK   19  A    between atoms: _50  and  _52
REMARK   20  A    between atoms: _52  and  _53
REMARK   21  A    between atoms: _52  and  _55
REMARK   22  A    between atoms: _55  and  _56
REMARK   23  A    between atoms: _56  and  _57
REMARK   24  A    between atoms: _62  and  _64
REMARK   25  A    between atoms: _64  and  _65
REMARK   26  A    between atoms: _64  and  _67
REMARK   27  A    between atoms: _69  and  _71
REMARK   28  A    between atoms: _71  and  _72
REMARK   29  A    between atoms: _71  and  _74
REMARK   30  A    between atoms: _74  and  _75
REMARK   31  A    between atoms: _80  and  _82
REMARK   32  A    between atoms: _82  and  _83
REMARK   33  A    between atoms: _86  and  _88
REMARK   34  A    between atoms: _88  and  _89
REMARK   35  A    between atoms: _88  and  _91
REMARK   36  A    between atoms: _91  and  _92
REMARK   37  A    between atoms: _94  and  _96
REMARK   38  A    between atoms: _96  and  _97
REMARK   39  A    between atoms: _100  and  _102
REMARK   40  A    between atoms: _102  and  _103
REMARK   41  A    between atoms: _102  and  _105
REMARK   42  A    between atoms: _105  and  _106
REMARK   43  A    between atoms: _106  and  _107
REMARK   44  A    between atoms: _112  and  _114
REMARK   45  A    between atoms: _114  and  _115
REMARK   46  A    between atoms: _114  and  _117
REMARK   47  A    between atoms: _117  and  _118
REMARK   48  A    between atoms: _118  and  _119
REMARK   49  A    between atoms: _124  and  _126
REMARK   50  A    between atoms: _126  and  _127
REMARK   51  A    between atoms: _126  and  _129
REMARK   52  A    between atoms: _129  and  _130
REMARK   53  A    between atoms: _136  and  _138
REMARK   54  A    between atoms: _138  and  _139
REMARK   55  A    between atoms: _138  and  _141
REMARK   56  A    between atoms: _141  and  _142
REMARK   57  A    between atoms: _145  and  _147
REMARK   58  A    between atoms: _147  and  _148
REMARK   59  A    between atoms: _147  and  _150
REMARK   60  A    between atoms: _153  and  _155
REMARK   61  A    between atoms: _155  and  _156
REMARK   62  A    between atoms: _155  and  _158
REMARK   63  A    between atoms: _158  and  _159
REMARK   64  A    between atoms: _163  and  ZN_417
REMARK   65  A    between atoms: _164  and  _166
REMARK   66  A    between atoms: _166  and  _167
REMARK   67  A    between atoms: _166  and  _169
REMARK   68  A    between atoms: _169  and  _170
REMARK   69  A    between atoms: _170  and  _171
REMARK   70  A    between atoms: _174  and  _176
REMARK   71  A    between atoms: _176  and  _177
REMARK   72  A    between atoms: _176  and  _179
REMARK   73  A    between atoms: _179  and  _180
REMARK   74  A    between atoms: _184  and  ZN_417
REMARK   75  A    between atoms: _185  and  _187
REMARK   76  A    between atoms: _187  and  _188
REMARK   77  A    between atoms: _187  and  _190
REMARK   78  A    between atoms: _190  and  _191
REMARK   79  A    between atoms: _196  and  _198
REMARK   80  A    between atoms: _198  and  _199
REMARK   81  A    between atoms: _198  and  _201
REMARK   82  A    between atoms: _201  and  _202
REMARK   83  A    between atoms: _202  and  _203
REMARK   84  A    between atoms: _203  and  _204
REMARK   85  A    between atoms: _204  and  ZN_417
REMARK   86  A    between atoms: _206  and  _208
REMARK   87  A    between atoms: _208  and  _209
REMARK   88  A    between atoms: _208  and  _211
REMARK   89  A    between atoms: _211  and  _212
REMARK   90  A    between atoms: _215  and  _217
REMARK   91  A    between atoms: _217  and  _218
REMARK   92  A    between atoms: _217  and  _220
REMARK   93  A    between atoms: _220  and  _221
REMARK   94  A    between atoms: _224  and  _226
REMARK   95  A    between atoms: _226  and  _227
REMARK   96  A    between atoms: _226  and  _229
REMARK   97  A    between atoms: _229  and  _230
REMARK   98  A    between atoms: _230  and  _231
REMARK   99  A    between atoms: _231  and  _232
REMARK  100  A    between atoms: _232  and  _233
REMARK  101  A    between atoms: _237  and  _239
REMARK  102  A    between atoms: _239  and  _240
REMARK  103  A    between atoms: _239  and  _242
REMARK  104  A    between atoms: _242  and  _243
REMARK  105  A    between atoms: _249  and  _251
REMARK  106  A    between atoms: _251  and  _252
REMARK  107  A    between atoms: _251  and  _254
REMARK  108  A    between atoms: _254  and  _255
REMARK  109  A    between atoms: _261  and  _263
REMARK  110  A    between atoms: _263  and  _264
REMARK  111  A    between atoms: _267  and  _269
REMARK  112  A    between atoms: _269  and  _270
REMARK  113  A    between atoms: _269  and  _272
REMARK  114  A    between atoms: _272  and  _273
REMARK  115  A    between atoms: _273  and  _274
REMARK  116  A    between atoms: _276  and  _278
REMARK  117  A    between atoms: _278  and  _279
REMARK  118  A    between atoms: _278  and  _281
REMARK  119  A    between atoms: _281  and  _282
REMARK  120  A    between atoms: _282  and  _283
REMARK  121  A    between atoms: _283  and  _284
REMARK  122  A    between atoms: _284  and  _285
REMARK  123  A    between atoms: _289  and  _291
REMARK  124  A    between atoms: _291  and  _292
REMARK  125  A    between atoms: _291  and  _294
REMARK  126  A    between atoms: _294  and  _295
REMARK  127  A    between atoms: _300  and  _301
REMARK  128  A    between atoms: _303  and  _305
REMARK  129  A    between atoms: _305  and  _306
REMARK  130  A    between atoms: _305  and  _308
REMARK  131  A    between atoms: _308  and  _309
REMARK  132  A    between atoms: _314  and  _316
REMARK  133  A    between atoms: _316  and  _317
REMARK  134  A    between atoms: _316  and  _319
REMARK  135  A    between atoms: _319  and  _320
REMARK  136  A    between atoms: _323  and  _325
REMARK  137  A    between atoms: _325  and  _326
REMARK  138  A    between atoms: _325  and  _328
REMARK  139  A    between atoms: _331  and  _333
REMARK  140  A    between atoms: _333  and  _334
REMARK  141  A    between atoms: _333  and  _336
REMARK  142  A    between atoms: _336  and  _337
REMARK  143  A    between atoms: _342  and  _343
REMARK  144  A    between atoms: _345  and  _347
REMARK  145  A    between atoms: _347  and  _348
REMARK  146  A    between atoms: _347  and  _350
REMARK  147  A    between atoms: _350  and  _351
REMARK  148  A    between atoms: _351  and  _352
REMARK  149  A    between atoms: _352  and  _353
REMARK  150  A    between atoms: _362  and  _364
REMARK  151  A    between atoms: _364  and  _365
REMARK  152  A    between atoms: _364  and  _367
REMARK  153  A    between atoms: _367  and  _368
REMARK  154  A    between atoms: _373  and  _374
REMARK  155  A    between atoms: _376  and  _378
REMARK  156  A    between atoms: _378  and  _379
REMARK  157  A    between atoms: _378  and  _381
REMARK  158  A    between atoms: _381  and  _382
REMARK  159  A    between atoms: _385  and  _387
REMARK  160  A    between atoms: _387  and  _388
REMARK  161  A    between atoms: _387  and  _390
REMARK  162  A    between atoms: _390  and  _391
REMARK  163  A    between atoms: _393  and  _395
REMARK  164  A    between atoms: _395  and  _396
REMARK  165  A    between atoms: _395  and  _398
REMARK  166  A    between atoms: _398  and  _399
REMARK  167  A    between atoms: _405  and  _407
REMARK  168  A    between atoms: _407  and  _408
REMARK  169  A    between atoms: _407  and  _410
REMARK  170  A    between atoms: _410  and  _411
REMARK  171  A    between atoms: _411  and  _412
REMARK                            x       y       z     vdW  Elec       q    Type
REMARK                         _______ _______ _______ _____ _____    ______ ____
ROOT
ATOM      1  O   HOH     1      31.745   5.875 -38.780  0.00  0.00    +0.000 OA
ENDROOT
TORSDOF 0
REMARK  Name = ../refined-set-2016/2x8z/2x8z_pocket.pdb
REMARK  171 active torsions:
REMARK  status: ('A' for Active; 'I' for Inactive)
REMARK    1  A    between atoms: _1  and  _3
REMARK    2  A    between atoms: _3  and  _4
REMARK    3  A    between atoms: _3  and  _6
REMARK    4  A    between atoms: _6  and  _7
REMARK    5  A    between atoms: _7  and  _8
REMARK    6  A    between atoms: _11  and  _13
REMARK    7  A    between atoms: _13  and  _14
REMARK    8  A    between atoms: _13  and  _16
REMARK    9  A    between atoms: _16  and  _17
REMARK   10  A    between atoms: _22  and  _24
REMARK   11  A    between atoms: _24  and  _25
REMARK   12  A    between atoms: _24  and  _27
REMARK   13  A    between atoms: _27  and  _28
REMARK   14  A    between atoms: _38  and  _40
REMARK   15  A    between atoms: _40  and  _41
REMARK   16  A    between atoms: _40  and  _43
REMARK   17  A    between atoms: _43  and  _44
REMARK   18  A    between atoms: _44  and  _45
REMARK   19  A    between atoms: _50  and  _52
REMARK   20  A    between atoms: _52  and  _53
REMARK   21  A    between atoms: _52  and  _55
REMARK   22  A    between atoms: _55  and  _56
REMARK   23  A    between atoms: _56  and  _57
REMARK   24  A    between atoms: _62  and  _64
REMARK   25  A    between atoms: _64  and  _65
REMARK   26  A    between atoms: _64  and  _67
REMARK   27  A    between atoms: _69  and  _71
REMARK   28  A    between atoms: _71  and  _72
REMARK   29  A    between atoms: _71  and  _74
REMARK   30  A    between atoms: _74  and  _75
REMARK   31  A    between atoms: _80  and  _82
REMARK   32  A    between atoms: _82  and  _83
REMARK   33  A    between atoms: _86  and  _88
REMARK   34  A    between atoms: _88  and  _89
REMARK   35  A    between atoms: _88  and  _91
REMARK   36  A    between atoms: _91  and  _92
REMARK   37  A    between atoms: _94  and  _96
REMARK   38  A    between atoms: _96  and  _97
REMARK   39  A    between atoms: _100  and  _102
REMARK   40  A    between atoms: _102  and  _103
REMARK   41  A    between atoms: _102  and  _105
REMARK   42  A    between atoms: _105  and  _106
REMARK   43  A    between atoms: _106  and  _107
REMARK   44  A    between atoms: _112  and  _114
REMARK   45  A    between atoms: _114  and  _115
REMARK   46  A    between atoms: _114  and  _117
REMARK   47  A    between atoms: _117  and  _118
REMARK   48  A    between atoms: _118  and  _119
REMARK   49  A    between atoms: _124  and  _126
REMARK   50  A    between atoms: _126  and  _127
REMARK   51  A    between atoms: _126  and  _129
REMARK   52  A    between atoms: _129  and  _130
REMARK   53  A    between atoms: _136  and  _138
REMARK   54  A    between atoms: _138  and  _139
REMARK   55  A    between atoms: _138  and  _141
REMARK   56  A    between atoms: _141  and  _142
REMARK   57  A    between atoms: _145  and  _147
REMARK   58  A    between atoms: _147  and  _148
REMARK   59  A    between atoms: _147  and  _150
REMARK   60  A    between atoms: _153  and  _155
REMARK   61  A    between atoms: _155  and  _156
REMARK   62  A    between atoms: _155  and  _158
REMARK   63  A    between atoms: _158  and  _159
REMARK   64  A    between atoms: _163  and  ZN_417
REMARK   65  A    between atoms: _164  and  _166
REMARK   66  A    between atoms: _166  and  _167
REMARK   67  A    between atoms: _166  and  _169
REMARK   68  A    between atoms: _169  and  _170
REMARK   69  A    between atoms: _170  and  _171
REMARK   70  A    between atoms: _174  and  _176
REMARK   71  A    between atoms: _176  and  _177
REMARK   72  A    between atoms: _176  and  _179
REMARK   73  A    between atoms: _179  and  _180
REMARK   74  A    between atoms: _184  and  ZN_417
REMARK   75  A    between atoms: _185  and  _187
REMARK   76  A    between atoms: _187  and  _188
REMARK   77  A    between atoms: _187  and  _190
REMARK   78  A    between atoms: _190  and  _191
REMARK   79  A    between atoms: _196  and  _198
REMARK   80  A    between atoms: _198  and  _199
REMARK   81  A    between atoms: _198  and  _201
REMARK   82  A    between atoms: _201  and  _202
REMARK   83  A    between atoms: _202  and  _203
REMARK   84  A    between atoms: _203  and  _204
REMARK   85  A    between atoms: _204  and  ZN_417
REMARK   86  A    between atoms: _206  and  _208
REMARK   87  A    between atoms: _208  and  _209
REMARK   88  A    between atoms: _208  and  _211
REMARK   89  A    between atoms: _211  and  _212
REMARK   90  A    between atoms: _215  and  _217
REMARK   91  A    between atoms: _217  and  _218
REMARK   92  A    between atoms: _217  and  _220
REMARK   93  A    between atoms: _220  and  _221
REMARK   94  A    between atoms: _224  and  _226
REMARK   95  A    between atoms: _226  and  _227
REMARK   96  A    between atoms: _226  and  _229
REMARK   97  A    between atoms: _229  and  _230
REMARK   98  A    between atoms: _230  and  _231
REMARK   99  A    between atoms: _231  and  _232
REMARK  100  A    between atoms: _232  and  _233
REMARK  101  A    between atoms: _237  and  _239
REMARK  102  A    between atoms: _239  and  _240
REMARK  103  A    between atoms: _239  and  _242
REMARK  104  A    between atoms: _242  and  _243
REMARK  105  A    between atoms: _249  and  _251
REMARK  106  A    between atoms: _251  and  _252
REMARK  107  A    between atoms: _251  and  _254
REMARK  108  A    between atoms: _254  and  _255
REMARK  109  A    between atoms: _261  and  _263
REMARK  110  A    between atoms: _263  and  _264
REMARK  111  A    between atoms: _267  and  _269
REMARK  112  A    between atoms: _269  and  _270
REMARK  113  A    between atoms: _269  and  _272
REMARK  114  A    between atoms: _272  and  _273
REMARK  115  A    between atoms: _273  and  _274
REMARK  116  A    between atoms: _276  and  _278
REMARK  117  A    between atoms: _278  and  _279
REMARK  118  A    between atoms: _278  and  _281
REMARK  119  A    between atoms: _281  and  _282
REMARK  120  A    between atoms: _282  and  _283
REMARK  121  A    between atoms: _283  and  _284
REMARK  122  A    between atoms: _284  and  _285
REMARK  123  A    between atoms: _289  and  _291
REMARK  124  A    between atoms: _291  and  _292
REMARK  125  A    between atoms: _291  and  _294
REMARK  126  A    between atoms: _294  and  _295
REMARK  127  A    between atoms: _300  and  _301
REMARK  128  A    between atoms: _303  and  _305
REMARK  129  A    between atoms: _305  and  _306
REMARK  130  A    between atoms: _305  and  _308
REMARK  131  A    between atoms: _308  and  _309
REMARK  132  A    between atoms: _314  and  _316
REMARK  133  A    between atoms: _316  and  _317
REMARK  134  A    between atoms: _316  and  _319
REMARK  135  A    between atoms: _319  and  _320
REMARK  136  A    between atoms: _323  and  _325
REMARK  137  A    between atoms: _325  and  _326
REMARK  138  A    between atoms: _325  and  _328
REMARK  139  A    between atoms: _331  and  _333
REMARK  140  A    between atoms: _333  and  _334
REMARK  141  A    between atoms: _333  and  _336
REMARK  142  A    between atoms: _336  and  _337
REMARK  143  A    between atoms: _342  and  _343
REMARK  144  A    between atoms: _345  and  _347
REMARK  145  A    between atoms: _347  and  _348
REMARK  146  A    between atoms: _347  and  _350
REMARK  147  A    between atoms: _350  and  _351
REMARK  148  A    between atoms: _351  and  _352
REMARK  149  A    between atoms: _352  and  _353
REMARK  150  A    between atoms: _362  and  _364
REMARK  151  A    between atoms: _364  and  _365
REMARK  152  A    between atoms: _364  and  _367
REMARK  153  A    between atoms: _367  and  _368
REMARK  154  A    between atoms: _373  and  _374
REMARK  155  A    between atoms: _376  and  _378
REMARK  156  A    between atoms: _378  and  _379
REMARK  157  A    between atoms: _378  and  _381
REMARK  158  A    between atoms: _381  and  _382
REMARK  159  A    between atoms: _385  and  _387
REMARK  160  A    between atoms: _387  and  _388
REMARK  161  A    between atoms: _387  and  _390
REMARK  162  A    between atoms: _390  and  _391
REMARK  163  A    between atoms: _393  and  _395
REMARK  164  A    between atoms: _395  and  _396
REMARK  165  A    between atoms: _395  and  _398
REMARK  166  A    between atoms: _398  and  _399
REMARK  167  A    between atoms: _405  and  _407
REMARK  168  A    between atoms: _407  and  _408
REMARK  169  A    between atoms: _407  and  _410
REMARK  170  A    between atoms: _410  and  _411
REMARK  171  A    between atoms: _411  and  _412
REMARK                            x       y       z     vdW  Elec       q    Type
REMARK                         _______ _______ _______ _____ _____    ______ ____
ROOT
ATOM      1  O   HOH     1      29.009   7.540 -41.323  0.00  0.00    +0.000 OA
ENDROOT
TORSDOF 0
