REMARK  Name = ../refined-set-2016/4ej8/4ej8_pocket.pdb
REMARK  66 active torsions:
REMARK  status: ('A' for Active; 'I' for Inactive)
REMARK    1  A    between atoms: _1  and  _3
REMARK    2  A    between atoms: _3  and  _4
REMARK    3  A    between atoms: _3  and  _6
REMARK    4  A    between atoms: _6  and  _7
REMARK    5  A    between atoms: _7  and  _8
REMARK    6  A    between atoms: _11  and  _13
REMARK    7  A    between atoms: _13  and  _14
REMARK    8  A    between atoms: _13  and  _16
REMARK    9  A    between atoms: _16  and  _17
REMARK   10  A    between atoms: _27  and  _29
REMARK   11  A    between atoms: _29  and  _30
REMARK   12  A    between atoms: _29  and  _32
REMARK   13  A    between atoms: _32  and  _33
REMARK   14  A    between atoms: _33  and  _34
REMARK   15  A    between atoms: _34  and  _35
REMARK   16  A    between atoms: _35  and  _36
REMARK   17  A    between atoms: _41  and  _42
REMARK   18  A    between atoms: _47  and  _49
REMARK   19  A    between atoms: _49  and  _50
REMARK   20  A    between atoms: _49  and  _52
REMARK   21  A    between atoms: _52  and  _53
REMARK   22  A    between atoms: _53  and  _54
REMARK   23  A    between atoms: _54  and  _55
REMARK   24  A    between atoms: _55  and  _56
REMARK   25  A    between atoms: _60  and  _62
REMARK   26  A    between atoms: _62  and  _63
REMARK   27  A    between atoms: _62  and  _65
REMARK   28  A    between atoms: _65  and  _66
REMARK   29  A    between atoms: _66  and  _67
REMARK   30  A    between atoms: _69  and  _71
REMARK   31  A    between atoms: _71  and  _72
REMARK   32  A    between atoms: _71  and  _74
REMARK   33  A    between atoms: _74  and  _75
REMARK   34  A    between atoms: _78  and  _80
REMARK   35  A    between atoms: _80  and  _81
REMARK   36  A    between atoms: _80  and  _83
REMARK   37  A    between atoms: _83  and  _84
REMARK   38  A    between atoms: _87  and  _89
REMARK   39  A    between atoms: _89  and  _90
REMARK   40  A    between atoms: _89  and  _92
REMARK   41  A    between atoms: _92  and  _93
REMARK   42  A    between atoms: _93  and  _94
REMARK   43  A    between atoms: _94  and  _95
REMARK   44  A    between atoms: _95  and  _96
REMARK   45  A    between atoms: _100  and  _102
REMARK   46  A    between atoms: _102  and  _103
REMARK   47  A    between atoms: _102  and  _105
REMARK   48  A    between atoms: _108  and  _110
REMARK   49  A    between atoms: _110  and  _111
REMARK   50  A    between atoms: _110  and  _113
REMARK   51  A    between atoms: _113  and  _114
REMARK   52  A    between atoms: _114  and  _115
REMARK   53  A    between atoms: _115  and  _116
REMARK   54  A    between atoms: _125  and  _127
REMARK   55  A    between atoms: _127  and  _128
REMARK   56  A    between atoms: _127  and  _130
REMARK   57  A    between atoms: _130  and  _131
REMARK   58  A    between atoms: _131  and  _132
REMARK   59  A    between atoms: _137  and  _139
REMARK   60  A    between atoms: _139  and  _140
REMARK   61  A    between atoms: _139  and  _142
REMARK   62  A    between atoms: _142  and  _143
REMARK   63  A    between atoms: _148  and  _149
REMARK   64  A    between atoms: _151  and  _153
REMARK   65  A    between atoms: _153  and  _154
REMARK   66  A    between atoms: _153  and  _156
REMARK                            x       y       z     vdW  Elec       q    Type
REMARK                         _______ _______ _______ _____ _____    ______ ____
ROOT
ATOM      1  CA  GLU A   1       3.235  15.804  19.902  0.00  0.00    +0.134 C 
ENDROOT
BRANCH   1   2
ATOM      2  N   GLU A   1       3.483  14.901  18.784  0.00  0.00    -0.239 NA
ATOM      3  H   GLU A   1       3.452  15.288  17.819  0.00  0.00    +0.142 HD
ENDBRANCH   1   2
BRANCH   1   4
ATOM      4  C   GLU A   1       2.195  15.218  20.853  0.00  0.00    +0.224 C 
ATOM      5  O   GLU A   1       1.076  14.897  20.452  0.00  0.00    -0.287 OA
ENDBRANCH   1   4
BRANCH   1   6
ATOM      6  CB  GLU A   1       2.796  17.176  19.388  0.00  0.00    +0.037 C 
BRANCH   6   7
ATOM      7  CG  GLU A   1       2.830  18.276  20.435  0.00  0.00    +0.116 C 
BRANCH   7   8
ATOM      8  CD  GLU A   1       4.204  18.462  21.045  0.00  0.00    +0.365 C 
ATOM      9  OE2 GLU A   1       4.365  18.122  22.235  0.00  0.00    -0.246 OA
ATOM     10  OE1 GLU A   1       5.125  18.925  20.336  0.00  0.00    -0.246 OA
ENDBRANCH   7   8
ENDBRANCH   6   7
ENDBRANCH   1   6
TORSDOF 5
REMARK  Name = ../refined-set-2016/4ej8/4ej8_pocket.pdb
REMARK  66 active torsions:
REMARK  status: ('A' for Active; 'I' for Inactive)
REMARK    1  A    between atoms: _1  and  _3
REMARK    2  A    between atoms: _3  and  _4
REMARK    3  A    between atoms: _3  and  _6
REMARK    4  A    between atoms: _6  and  _7
REMARK    5  A    between atoms: _7  and  _8
REMARK    6  A    between atoms: _11  and  _13
REMARK    7  A    between atoms: _13  and  _14
REMARK    8  A    between atoms: _13  and  _16
REMARK    9  A    between atoms: _16  and  _17
REMARK   10  A    between atoms: _27  and  _29
REMARK   11  A    between atoms: _29  and  _30
REMARK   12  A    between atoms: _29  and  _32
REMARK   13  A    between atoms: _32  and  _33
REMARK   14  A    between atoms: _33  and  _34
REMARK   15  A    between atoms: _34  and  _35
REMARK   16  A    between atoms: _35  and  _36
REMARK   17  A    between atoms: _41  and  _42
REMARK   18  A    between atoms: _47  and  _49
REMARK   19  A    between atoms: _49  and  _50
REMARK   20  A    between atoms: _49  and  _52
REMARK   21  A    between atoms: _52  and  _53
REMARK   22  A    between atoms: _53  and  _54
REMARK   23  A    between atoms: _54  and  _55
REMARK   24  A    between atoms: _55  and  _56
REMARK   25  A    between atoms: _60  and  _62
REMARK   26  A    between atoms: _62  and  _63
REMARK   27  A    between atoms: _62  and  _65
REMARK   28  A    between atoms: _65  and  _66
REMARK   29  A    between atoms: _66  and  _67
REMARK   30  A    between atoms: _69  and  _71
REMARK   31  A    between atoms: _71  and  _72
REMARK   32  A    between atoms: _71  and  _74
REMARK   33  A    between atoms: _74  and  _75
REMARK   34  A    between atoms: _78  and  _80
REMARK   35  A    between atoms: _80  and  _81
REMARK   36  A    between atoms: _80  and  _83
REMARK   37  A    between atoms: _83  and  _84
REMARK   38  A    between atoms: _87  and  _89
REMARK   39  A    between atoms: _89  and  _90
REMARK   40  A    between atoms: _89  and  _92
REMARK   41  A    between atoms: _92  and  _93
REMARK   42  A    between atoms: _93  and  _94
REMARK   43  A    between atoms: _94  and  _95
REMARK   44  A    between atoms: _95  and  _96
REMARK   45  A    between atoms: _100  and  _102
REMARK   46  A    between atoms: _102  and  _103
REMARK   47  A    between atoms: _102  and  _105
REMARK   48  A    between atoms: _108  and  _110
REMARK   49  A    between atoms: _110  and  _111
REMARK   50  A    between atoms: _110  and  _113
REMARK   51  A    between atoms: _113  and  _114
REMARK   52  A    between atoms: _114  and  _115
REMARK   53  A    between atoms: _115  and  _116
REMARK   54  A    between atoms: _125  and  _127
REMARK   55  A    between atoms: _127  and  _128
REMARK   56  A    between atoms: _127  and  _130
REMARK   57  A    between atoms: _130  and  _131
REMARK   58  A    between atoms: _131  and  _132
REMARK   59  A    between atoms: _137  and  _139
REMARK   60  A    between atoms: _139  and  _140
REMARK   61  A    between atoms: _139  and  _142
REMARK   62  A    between atoms: _142  and  _143
REMARK   63  A    between atoms: _148  and  _149
REMARK   64  A    between atoms: _151  and  _153
REMARK   65  A    between atoms: _153  and  _154
REMARK   66  A    between atoms: _153  and  _156
REMARK                            x       y       z     vdW  Elec       q    Type
REMARK                         _______ _______ _______ _____ _____    ______ ____
ROOT
ATOM      1  C   LYS A   2      15.390  18.535  26.108  0.00  0.00    +0.244 C 
ATOM      2  N   PRO A   3      15.613  19.821  25.774  0.00  0.00    -0.272 N 
ATOM      3  CD  PRO A   3      15.966  20.923  26.689  0.00  0.00    +0.094 C 
ATOM      4  CG  PRO A   3      16.402  22.014  25.755  0.00  0.00    +0.024 C 
ATOM      5  CB  PRO A   3      15.617  21.811  24.507  0.00  0.00    +0.031 C 
ATOM      6  CA  PRO A   3      15.435  20.292  24.391  0.00  0.00    +0.152 C 
ATOM      7  O   LYS A   2      15.058  17.678  25.283  0.00  0.00    -0.273 OA
ENDROOT
BRANCH   6   8
ATOM      8  C   PRO A   3      16.452  19.703  23.408  0.00  0.00    +0.241 C 
ATOM      9  O   PRO A   3      17.629  19.548  23.749  0.00  0.00    -0.273 OA
ATOM     10  N   LYS A   4      15.987  19.368  22.204  0.00  0.00    -0.297 N 
ATOM     11  H   LYS A   4      14.970  19.474  22.014  0.00  0.00    +0.150 HD
BRANCH  10  12
ATOM     12  CA  LYS A   4      16.853  18.856  21.138  0.00  0.00    +0.149 C 
BRANCH  12  13
ATOM     13  C   LYS A   4      16.340  19.265  19.760  0.00  0.00    +0.241 C 
ATOM     14  O   LYS A   4      15.161  19.588  19.586  0.00  0.00    -0.273 OA
ATOM     15  N   MET A   5      17.244  19.253  18.786  0.00  0.00    -0.297 N 
ATOM     16  H   MET A   5      18.245  19.113  19.032  0.00  0.00    +0.150 HD
BRANCH  15  17
ATOM     17  CA  MET A   5      16.883  19.429  17.388  0.00  0.00    +0.149 C 
BRANCH  17  18
ATOM     18  C   MET A   5      17.309  18.199  16.598  0.00  0.00    +0.241 C 
ATOM     19  O   MET A   5      18.410  17.669  16.796  0.00  0.00    -0.273 OA
ATOM     20  N   ILE A   6      16.435  17.737  15.711  0.00  0.00    -0.298 N 
ATOM     21  H   ILE A   6      15.495  18.177  15.639  0.00  0.00    +0.150 HD
BRANCH  20  22
ATOM     22  CA  ILE A   6      16.777  16.620  14.836  0.00  0.00    +0.137 C 
BRANCH  22  23
ATOM     23  C   ILE A   6      16.416  16.914  13.389  0.00  0.00    +0.227 C 
ATOM     24  O   ILE A   6      15.518  17.715  13.103  0.00  0.00    -0.286 OA
ENDBRANCH  22  23
BRANCH  22  25
ATOM     25  CB  ILE A   6      16.119  15.278  15.268  0.00  0.00    +0.026 C 
ATOM     26  CG2 ILE A   6      16.664  14.818  16.622  0.00  0.00    +0.002 C 
BRANCH  25  27
ATOM     27  CG1 ILE A   6      14.584  15.378  15.251  0.00  0.00    +0.002 C 
ATOM     28  CD1 ILE A   6      13.866  14.045  15.250  0.00  0.00    +0.000 C 
ENDBRANCH  25  27
ENDBRANCH  22  25
ENDBRANCH  20  22
ENDBRANCH  17  18
BRANCH  17  29
ATOM     29  CB  MET A   5      17.528  20.691  16.797  0.00  0.00    +0.041 C 
BRANCH  29  30
ATOM     30  CG  MET A   5      16.913  21.995  17.283  0.00  0.00    +0.060 C 
BRANCH  30  31
ATOM     31  SD  MET A   5      16.991  23.340  16.078  0.00  0.00    -0.139 S 
ATOM     32  CE  MET A   5      15.554  22.986  15.065  0.00  0.00    +0.069 C 
ENDBRANCH  30  31
ENDBRANCH  29  30
ENDBRANCH  17  29
ENDBRANCH  15  17
ENDBRANCH  12  13
BRANCH  12  33
ATOM     33  CB  LYS A   4      16.983  17.322  21.201  0.00  0.00    +0.029 C 
BRANCH  33  34
ATOM     34  CG  LYS A   4      17.714  16.763  22.417  0.00  0.00    +0.000 C 
BRANCH  34  35
ATOM     35  CD  LYS A   4      19.225  16.813  22.259  0.00  0.00    -0.024 C 
BRANCH  35  36
ATOM     36  CE  LYS A   4      19.913  16.635  23.601  0.00  0.00    -0.086 C 
BRANCH  36  37
ATOM     37  NZ  LYS A   4      21.349  17.042  23.550  0.00  0.00    +0.380 N 
ATOM     38  HZ1 LYS A   4      21.780  16.905  24.486  0.00  0.00    -0.089 HD
ATOM     39  HZ2 LYS A   4      21.415  18.044  23.280  0.00  0.00    -0.089 HD
ATOM     40  HZ3 LYS A   4      21.848  16.460  22.848  0.00  0.00    -0.089 HD
ENDBRANCH  36  37
ENDBRANCH  35  36
ENDBRANCH  34  35
ENDBRANCH  33  34
ENDBRANCH  12  33
ENDBRANCH  10  12
ENDBRANCH   6   8
BRANCH   1  41
ATOM     41  CA  LYS A   2      15.555  18.159  27.583  0.00  0.00    +0.149 C 
BRANCH  41  44
ATOM     42  C   TRP A   1      13.704  17.283  28.936  0.00  0.00    +0.239 C 
ATOM     43  O   TRP A   1      13.732  18.222  29.727  0.00  0.00    -0.274 OA
ATOM     44  N   LYS A   2      14.599  17.117  27.963  0.00  0.00    -0.297 N 
ATOM     45  H   LYS A   2      14.619  16.211  27.453  0.00  0.00    +0.150 HD
BRANCH  42  46
ATOM     46  CA  TRP A   1      12.635  16.233  29.035  0.00  0.00    +0.149 C 
BRANCH  46  47
ATOM     47  N   TRP A   1      12.101  16.104  30.393  0.00  0.00    -0.238 NA
ATOM     48  H   TRP A   1      11.816  16.964  30.904  0.00  0.00    +0.142 HD
ENDBRANCH  46  47
BRANCH  46  49
ATOM     49  CB  TRP A   1      11.519  16.541  28.044  0.00  0.00    +0.054 C 
BRANCH  49  50
ATOM     50  CG  TRP A   1      10.793  17.837  28.327  0.00  0.00    -0.002 A 
ATOM     51  CD1 TRP A   1       9.682  18.030  29.150  0.00  0.00    +0.068 A 
ATOM     52  NE1 TRP A   1       9.303  19.350  29.164  0.00  0.00    -0.352 N 
ATOM     53  HE1 TRP A   1       8.501  19.728  29.708  0.00  0.00    +0.166 HD
ATOM     54  CE2 TRP A   1      10.113  20.091  28.375  0.00  0.00    +0.056 A 
ATOM     55  CZ2 TRP A   1      10.104  21.450  28.082  0.00  0.00    +0.017 A 
ATOM     56  CH2 TRP A   1      11.090  21.915  27.211  0.00  0.00    +0.001 A 
ATOM     57  CZ3 TRP A   1      12.055  21.057  26.652  0.00  0.00    +0.000 A 
ATOM     58  CE3 TRP A   1      12.071  19.683  26.932  0.00  0.00    +0.001 A 
ATOM     59  CD2 TRP A   1      11.104  19.173  27.793  0.00  0.00    +0.013 A 
ENDBRANCH  49  50
ENDBRANCH  46  49
ENDBRANCH  42  46
ENDBRANCH  41  44
BRANCH  41  60
ATOM     60  CB  LYS A   2      17.000  17.739  27.884  0.00  0.00    +0.029 C 
BRANCH  60  61
ATOM     61  CG  LYS A   2      17.473  16.484  27.176  0.00  0.00    +0.000 C 
BRANCH  61  62
ATOM     62  CD  LYS A   2      18.889  16.120  27.595  0.00  0.00    -0.024 C 
BRANCH  62  63
ATOM     63  CE  LYS A   2      19.191  14.659  27.291  0.00  0.00    -0.086 C 
BRANCH  63  64
ATOM     64  NZ  LYS A   2      20.659  14.404  27.238  0.00  0.00    +0.380 N 
ATOM     65  HZ1 LYS A   2      21.085  14.645  28.156  0.00  0.00    -0.089 HD
ATOM     66  HZ2 LYS A   2      20.828  13.399  27.029  0.00  0.00    -0.089 HD
ATOM     67  HZ3 LYS A   2      21.085  14.991  26.492  0.00  0.00    -0.089 HD
ENDBRANCH  63  64
ENDBRANCH  62  63
ENDBRANCH  61  62
ENDBRANCH  60  61
ENDBRANCH  41  60
ENDBRANCH   1  41
TORSDOF 28
REMARK  Name = ../refined-set-2016/4ej8/4ej8_pocket.pdb
REMARK  66 active torsions:
REMARK  status: ('A' for Active; 'I' for Inactive)
REMARK    1  A    between atoms: _1  and  _3
REMARK    2  A    between atoms: _3  and  _4
REMARK    3  A    between atoms: _3  and  _6
REMARK    4  A    between atoms: _6  and  _7
REMARK    5  A    between atoms: _7  and  _8
REMARK    6  A    between atoms: _11  and  _13
REMARK    7  A    between atoms: _13  and  _14
REMARK    8  A    between atoms: _13  and  _16
REMARK    9  A    between atoms: _16  and  _17
REMARK   10  A    between atoms: _27  and  _29
REMARK   11  A    between atoms: _29  and  _30
REMARK   12  A    between atoms: _29  and  _32
REMARK   13  A    between atoms: _32  and  _33
REMARK   14  A    between atoms: _33  and  _34
REMARK   15  A    between atoms: _34  and  _35
REMARK   16  A    between atoms: _35  and  _36
REMARK   17  A    between atoms: _41  and  _42
REMARK   18  A    between atoms: _47  and  _49
REMARK   19  A    between atoms: _49  and  _50
REMARK   20  A    between atoms: _49  and  _52
REMARK   21  A    between atoms: _52  and  _53
REMARK   22  A    between atoms: _53  and  _54
REMARK   23  A    between atoms: _54  and  _55
REMARK   24  A    between atoms: _55  and  _56
REMARK   25  A    between atoms: _60  and  _62
REMARK   26  A    between atoms: _62  and  _63
REMARK   27  A    between atoms: _62  and  _65
REMARK   28  A    between atoms: _65  and  _66
REMARK   29  A    between atoms: _66  and  _67
REMARK   30  A    between atoms: _69  and  _71
REMARK   31  A    between atoms: _71  and  _72
REMARK   32  A    between atoms: _71  and  _74
REMARK   33  A    between atoms: _74  and  _75
REMARK   34  A    between atoms: _78  and  _80
REMARK   35  A    between atoms: _80  and  _81
REMARK   36  A    between atoms: _80  and  _83
REMARK   37  A    between atoms: _83  and  _84
REMARK   38  A    between atoms: _87  and  _89
REMARK   39  A    between atoms: _89  and  _90
REMARK   40  A    between atoms: _89  and  _92
REMARK   41  A    between atoms: _92  and  _93
REMARK   42  A    between atoms: _93  and  _94
REMARK   43  A    between atoms: _94  and  _95
REMARK   44  A    between atoms: _95  and  _96
REMARK   45  A    between atoms: _100  and  _102
REMARK   46  A    between atoms: _102  and  _103
REMARK   47  A    between atoms: _102  and  _105
REMARK   48  A    between atoms: _108  and  _110
REMARK   49  A    between atoms: _110  and  _111
REMARK   50  A    between atoms: _110  and  _113
REMARK   51  A    between atoms: _113  and  _114
REMARK   52  A    between atoms: _114  and  _115
REMARK   53  A    between atoms: _115  and  _116
REMARK   54  A    between atoms: _125  and  _127
REMARK   55  A    between atoms: _127  and  _128
REMARK   56  A    between atoms: _127  and  _130
REMARK   57  A    between atoms: _130  and  _131
REMARK   58  A    between atoms: _131  and  _132
REMARK   59  A    between atoms: _137  and  _139
REMARK   60  A    between atoms: _139  and  _140
REMARK   61  A    between atoms: _139  and  _142
REMARK   62  A    between atoms: _142  and  _143
REMARK   63  A    between atoms: _148  and  _149
REMARK   64  A    between atoms: _151  and  _153
REMARK   65  A    between atoms: _153  and  _154
REMARK   66  A    between atoms: _153  and  _156
REMARK                            x       y       z     vdW  Elec       q    Type
REMARK                         _______ _______ _______ _____ _____    ______ ____
ROOT
ATOM      1  CA  ARG A   4      11.592  17.240  23.482  0.00  0.00    +0.149 C 
ENDROOT
BRANCH   1   3
ATOM      2  C   VAL A   3      12.198  18.136  21.321  0.00  0.00    +0.241 C 
ATOM      3  N   ARG A   4      11.342  17.457  22.072  0.00  0.00    -0.297 N 
ATOM      4  H   ARG A   4      10.476  17.074  21.641  0.00  0.00    +0.150 HD
ATOM      5  O   VAL A   3      13.150  18.761  21.787  0.00  0.00    -0.273 OA
BRANCH   2   6
ATOM      6  CA  VAL A   3      11.935  18.097  19.816  0.00  0.00    +0.149 C 
BRANCH   6   8
ATOM      7  C   LYS A   2      11.946  19.947  18.211  0.00  0.00    +0.241 C 
ATOM      8  N   VAL A   3      12.598  19.201  19.098  0.00  0.00    -0.297 N 
ATOM      9  H   VAL A   3      13.600  19.401  19.290  0.00  0.00    +0.150 HD
ATOM     10  O   LYS A   2      10.797  19.704  17.862  0.00  0.00    -0.273 OA
BRANCH   7  11
ATOM     11  CA  LYS A   2      12.704  21.122  17.594  0.00  0.00    +0.149 C 
BRANCH  11  13
ATOM     12  C   ILE A   1      13.121  20.228  15.356  0.00  0.00    +0.238 C 
ATOM     13  N   LYS A   2      12.512  21.106  16.151  0.00  0.00    -0.297 N 
ATOM     14  H   LYS A   2      11.874  21.808  15.724  0.00  0.00    +0.150 HD
ATOM     15  O   ILE A   1      14.024  19.478  15.734  0.00  0.00    -0.274 OA
BRANCH  12  16
ATOM     16  CA  ILE A   1      12.635  20.199  13.908  0.00  0.00    +0.145 C 
BRANCH  16  17
ATOM     17  N   ILE A   1      13.715  19.921  12.940  0.00  0.00    -0.238 NA
ATOM     18  H   ILE A   1      14.364  19.129  13.120  0.00  0.00    +0.142 HD
ENDBRANCH  16  17
BRANCH  16  19
ATOM     19  CB  ILE A   1      11.446  19.201  13.799  0.00  0.00    +0.025 C 
ATOM     20  CG2 ILE A   1      10.601  19.497  12.568  0.00  0.00    +0.002 C 
BRANCH  19  21
ATOM     21  CG1 ILE A   1      11.940  17.749  13.777  0.00  0.00    +0.002 C 
ATOM     22  CD1 ILE A   1      10.905  16.734  14.205  0.00  0.00    +0.000 C 
ENDBRANCH  19  21
ENDBRANCH  16  19
ENDBRANCH  12  16
ENDBRANCH  11  13
BRANCH  11  23
ATOM     23  CB  LYS A   2      12.196  22.443  18.181  0.00  0.00    +0.029 C 
BRANCH  23  24
ATOM     24  CG  LYS A   2      13.202  23.587  18.177  0.00  0.00    +0.000 C 
BRANCH  24  25
ATOM     25  CD  LYS A   2      12.530  24.875  18.647  0.00  0.00    -0.024 C 
BRANCH  25  26
ATOM     26  CE  LYS A   2      13.495  25.906  19.222  0.00  0.00    -0.086 C 
BRANCH  26  27
ATOM     27  NZ  LYS A   2      14.659  26.225  18.349  0.00  0.00    +0.380 N 
ATOM     28  HZ1 LYS A   2      15.259  26.933  18.819  0.00  0.00    -0.089 HD
ATOM     29  HZ2 LYS A   2      15.210  25.360  18.178  0.00  0.00    -0.089 HD
ATOM     30  HZ3 LYS A   2      14.318  26.605  17.443  0.00  0.00    -0.089 HD
ENDBRANCH  26  27
ENDBRANCH  25  26
ENDBRANCH  24  25
ENDBRANCH  23  24
ENDBRANCH  11  23
ENDBRANCH   7  11
ENDBRANCH   6   8
BRANCH   6  31
ATOM     31  CB  VAL A   3      12.320  16.683  19.287  0.00  0.00    +0.027 C 
ATOM     32  CG2 VAL A   3      13.830  16.462  19.311  0.00  0.00    +0.002 C 
ATOM     33  CG1 VAL A   3      11.728  16.422  17.907  0.00  0.00    +0.002 C 
ENDBRANCH   6  31
ENDBRANCH   2   6
ENDBRANCH   1   3
BRANCH   1  34
ATOM     34  C   ARG A   4      12.064  15.809  23.639  0.00  0.00    +0.241 C 
ATOM     35  N   GLN A   5      13.289  15.650  24.130  0.00  0.00    -0.297 N 
ATOM     36  H   GLN A   5      13.859  16.493  24.346  0.00  0.00    +0.150 HD
ATOM     37  O   ARG A   4      11.345  14.870  23.291  0.00  0.00    -0.273 OA
BRANCH  35  38
ATOM     38  CA  GLN A   5      13.859  14.327  24.376  0.00  0.00    +0.149 C 
BRANCH  38  39
ATOM     39  C   GLN A   5      13.505  13.809  25.765  0.00  0.00    +0.241 C 
ATOM     40  O   GLN A   5      13.875  14.414  26.769  0.00  0.00    -0.273 OA
ATOM     41  N   TYR A   6      12.798  12.689  25.813  0.00  0.00    -0.298 N 
ATOM     42  H   TYR A   6      12.462  12.266  24.924  0.00  0.00    +0.150 HD
BRANCH  41  43
ATOM     43  CA  TYR A   6      12.476  12.031  27.075  0.00  0.00    +0.141 C 
BRANCH  43  44
ATOM     44  C   TYR A   6      13.272  10.737  27.199  0.00  0.00    +0.227 C 
ATOM     45  O   TYR A   6      13.049   9.803  26.428  0.00  0.00    -0.286 OA
ENDBRANCH  43  44
BRANCH  43  46
ATOM     46  CB  TYR A   6      10.991  11.685  27.141  0.00  0.00    +0.054 C 
BRANCH  46  47
ATOM     47  CG  TYR A   6      10.018  12.844  27.157  0.00  0.00    -0.020 A 
ATOM     48  CD2 TYR A   6       9.450  13.281  28.354  0.00  0.00    -0.001 A 
ATOM     49  CE2 TYR A   6       8.535  14.322  28.378  0.00  0.00    +0.036 A 
ATOM     50  CZ  TYR A   6       8.164  14.934  27.194  0.00  0.00    +0.134 A 
ATOM     51  CE1 TYR A   6       8.703  14.510  25.991  0.00  0.00    +0.036 A 
ATOM     52  CD1 TYR A   6       9.618  13.464  25.976  0.00  0.00    -0.001 A 
BRANCH  50  53
ATOM     53  OH  TYR A   6       7.256  15.977  27.212  0.00  0.00    -0.506 OA
ATOM     54  HH  TYR A   6       7.104  16.297  26.287  0.00  0.00    +0.292 HD
ENDBRANCH  50  53
ENDBRANCH  46  47
ENDBRANCH  43  46
ENDBRANCH  41  43
ENDBRANCH  38  39
BRANCH  38  55
ATOM     55  CB  GLN A   5      15.378  14.348  24.216  0.00  0.00    +0.039 C 
BRANCH  55  56
ATOM     56  CG  GLN A   5      16.045  13.073  24.708  0.00  0.00    +0.087 C 
BRANCH  56  57
ATOM     57  CD  GLN A   5      17.525  13.027  24.407  0.00  0.00    +0.219 C 
ATOM     58  NE2 GLN A   5      18.250  12.185  25.136  0.00  0.00    -0.329 N 
ATOM     59 HE21 GLN A   5      17.794  11.607  25.870  0.00  0.00    +0.145 HD
ATOM     60 HE22 GLN A   5      19.274  12.104  24.972  0.00  0.00    +0.145 HD
ATOM     61  OE1 GLN A   5      18.013  13.736  23.524  0.00  0.00    -0.275 OA
ENDBRANCH  56  57
ENDBRANCH  55  56
ENDBRANCH  38  55
ENDBRANCH  35  38
ENDBRANCH   1  34
BRANCH   1  62
ATOM     62  CB  ARG A   4      10.336  17.513  24.308  0.00  0.00    +0.033 C 
BRANCH  62  63
ATOM     63  CG  ARG A   4       9.810  18.929  24.146  0.00  0.00    +0.045 C 
BRANCH  63  64
ATOM     64  CD  ARG A   4       8.794  19.296  25.210  0.00  0.00    +0.174 C 
BRANCH  64  65
ATOM     65  NE  ARG A   4       7.688  18.348  25.265  0.00  0.00    -0.265 N 
ATOM     66  HE  ARG A   4       7.673  17.669  26.053  0.00  0.00    +0.259 HD
ATOM     67  CZ  ARG A   4       6.696  18.288  24.380  0.00  0.00    +0.342 C 
ATOM     68  NH2 ARG A   4       5.734  17.385  24.533  0.00  0.00    -0.292 N 
ATOM     69 HH21 ARG A   4       5.759  16.730  25.341  0.00  0.00    +0.255 HD
ATOM     70 HH22 ARG A   4       4.956  17.333  23.845  0.00  0.00    +0.255 HD
ATOM     71  NH1 ARG A   4       6.664  19.115  23.340  0.00  0.00    -0.292 N 
ATOM     72 HH11 ARG A   4       7.419  19.818  23.211  0.00  0.00    +0.255 HD
ATOM     73 HH12 ARG A   4       5.884  19.059  22.655  0.00  0.00    +0.255 HD
ENDBRANCH  64  65
ENDBRANCH  63  64
ENDBRANCH  62  63
ENDBRANCH   1  62
TORSDOF 30
REMARK  Name = ../refined-set-2016/4ej8/4ej8_pocket.pdb
REMARK  66 active torsions:
REMARK  status: ('A' for Active; 'I' for Inactive)
REMARK    1  A    between atoms: _1  and  _3
REMARK    2  A    between atoms: _3  and  _4
REMARK    3  A    between atoms: _3  and  _6
REMARK    4  A    between atoms: _6  and  _7
REMARK    5  A    between atoms: _7  and  _8
REMARK    6  A    between atoms: _11  and  _13
REMARK    7  A    between atoms: _13  and  _14
REMARK    8  A    between atoms: _13  and  _16
REMARK    9  A    between atoms: _16  and  _17
REMARK   10  A    between atoms: _27  and  _29
REMARK   11  A    between atoms: _29  and  _30
REMARK   12  A    between atoms: _29  and  _32
REMARK   13  A    between atoms: _32  and  _33
REMARK   14  A    between atoms: _33  and  _34
REMARK   15  A    between atoms: _34  and  _35
REMARK   16  A    between atoms: _35  and  _36
REMARK   17  A    between atoms: _41  and  _42
REMARK   18  A    between atoms: _47  and  _49
REMARK   19  A    between atoms: _49  and  _50
REMARK   20  A    between atoms: _49  and  _52
REMARK   21  A    between atoms: _52  and  _53
REMARK   22  A    between atoms: _53  and  _54
REMARK   23  A    between atoms: _54  and  _55
REMARK   24  A    between atoms: _55  and  _56
REMARK   25  A    between atoms: _60  and  _62
REMARK   26  A    between atoms: _62  and  _63
REMARK   27  A    between atoms: _62  and  _65
REMARK   28  A    between atoms: _65  and  _66
REMARK   29  A    between atoms: _66  and  _67
REMARK   30  A    between atoms: _69  and  _71
REMARK   31  A    between atoms: _71  and  _72
REMARK   32  A    between atoms: _71  and  _74
REMARK   33  A    between atoms: _74  and  _75
REMARK   34  A    between atoms: _78  and  _80
REMARK   35  A    between atoms: _80  and  _81
REMARK   36  A    between atoms: _80  and  _83
REMARK   37  A    between atoms: _83  and  _84
REMARK   38  A    between atoms: _87  and  _89
REMARK   39  A    between atoms: _89  and  _90
REMARK   40  A    between atoms: _89  and  _92
REMARK   41  A    between atoms: _92  and  _93
REMARK   42  A    between atoms: _93  and  _94
REMARK   43  A    between atoms: _94  and  _95
REMARK   44  A    between atoms: _95  and  _96
REMARK   45  A    between atoms: _100  and  _102
REMARK   46  A    between atoms: _102  and  _103
REMARK   47  A    between atoms: _102  and  _105
REMARK   48  A    between atoms: _108  and  _110
REMARK   49  A    between atoms: _110  and  _111
REMARK   50  A    between atoms: _110  and  _113
REMARK   51  A    between atoms: _113  and  _114
REMARK   52  A    between atoms: _114  and  _115
REMARK   53  A    between atoms: _115  and  _116
REMARK   54  A    between atoms: _125  and  _127
REMARK   55  A    between atoms: _127  and  _128
REMARK   56  A    between atoms: _127  and  _130
REMARK   57  A    between atoms: _130  and  _131
REMARK   58  A    between atoms: _131  and  _132
REMARK   59  A    between atoms: _137  and  _139
REMARK   60  A    between atoms: _139  and  _140
REMARK   61  A    between atoms: _139  and  _142
REMARK   62  A    between atoms: _142  and  _143
REMARK   63  A    between atoms: _148  and  _149
REMARK   64  A    between atoms: _151  and  _153
REMARK   65  A    between atoms: _153  and  _154
REMARK   66  A    between atoms: _153  and  _156
REMARK                            x       y       z     vdW  Elec       q    Type
REMARK                         _______ _______ _______ _____ _____    ______ ____
ROOT
ATOM      1  CA  VAL A   1       8.510  14.122  20.990  0.00  0.00    +0.133 C 
ENDROOT
BRANCH   1   2
ATOM      2  CB  VAL A   1       7.684  14.144  22.307  0.00  0.00    +0.023 C 
ATOM      3  CG2 VAL A   1       7.645  12.759  22.946  0.00  0.00    +0.002 C 
ATOM      4  CG1 VAL A   1       6.260  14.639  22.060  0.00  0.00    +0.002 C 
ENDBRANCH   1   2
BRANCH   1   5
ATOM      5  N   VAL A   1       9.891  13.682  21.206  0.00  0.00    -0.239 NA
ATOM      6  H   VAL A   1      10.499  14.220  21.856  0.00  0.00    +0.142 HD
ENDBRANCH   1   5
BRANCH   1   7
ATOM      7  C   VAL A   1       8.491  15.481  20.285  0.00  0.00    +0.224 C 
ATOM      8  O   VAL A   1       9.102  16.446  20.748  0.00  0.00    -0.287 OA
ENDBRANCH   1   7
TORSDOF 3
REMARK  Name = ../refined-set-2016/4ej8/4ej8_pocket.pdb
REMARK  66 active torsions:
REMARK  status: ('A' for Active; 'I' for Inactive)
REMARK    1  A    between atoms: _1  and  _3
REMARK    2  A    between atoms: _3  and  _4
REMARK    3  A    between atoms: _3  and  _6
REMARK    4  A    between atoms: _6  and  _7
REMARK    5  A    between atoms: _7  and  _8
REMARK    6  A    between atoms: _11  and  _13
REMARK    7  A    between atoms: _13  and  _14
REMARK    8  A    between atoms: _13  and  _16
REMARK    9  A    between atoms: _16  and  _17
REMARK   10  A    between atoms: _27  and  _29
REMARK   11  A    between atoms: _29  and  _30
REMARK   12  A    between atoms: _29  and  _32
REMARK   13  A    between atoms: _32  and  _33
REMARK   14  A    between atoms: _33  and  _34
REMARK   15  A    between atoms: _34  and  _35
REMARK   16  A    between atoms: _35  and  _36
REMARK   17  A    between atoms: _41  and  _42
REMARK   18  A    between atoms: _47  and  _49
REMARK   19  A    between atoms: _49  and  _50
REMARK   20  A    between atoms: _49  and  _52
REMARK   21  A    between atoms: _52  and  _53
REMARK   22  A    between atoms: _53  and  _54
REMARK   23  A    between atoms: _54  and  _55
REMARK   24  A    between atoms: _55  and  _56
REMARK   25  A    between atoms: _60  and  _62
REMARK   26  A    between atoms: _62  and  _63
REMARK   27  A    between atoms: _62  and  _65
REMARK   28  A    between atoms: _65  and  _66
REMARK   29  A    between atoms: _66  and  _67
REMARK   30  A    between atoms: _69  and  _71
REMARK   31  A    between atoms: _71  and  _72
REMARK   32  A    between atoms: _71  and  _74
REMARK   33  A    between atoms: _74  and  _75
REMARK   34  A    between atoms: _78  and  _80
REMARK   35  A    between atoms: _80  and  _81
REMARK   36  A    between atoms: _80  and  _83
REMARK   37  A    between atoms: _83  and  _84
REMARK   38  A    between atoms: _87  and  _89
REMARK   39  A    between atoms: _89  and  _90
REMARK   40  A    between atoms: _89  and  _92
REMARK   41  A    between atoms: _92  and  _93
REMARK   42  A    between atoms: _93  and  _94
REMARK   43  A    between atoms: _94  and  _95
REMARK   44  A    between atoms: _95  and  _96
REMARK   45  A    between atoms: _100  and  _102
REMARK   46  A    between atoms: _102  and  _103
REMARK   47  A    between atoms: _102  and  _105
REMARK   48  A    between atoms: _108  and  _110
REMARK   49  A    between atoms: _110  and  _111
REMARK   50  A    between atoms: _110  and  _113
REMARK   51  A    between atoms: _113  and  _114
REMARK   52  A    between atoms: _114  and  _115
REMARK   53  A    between atoms: _115  and  _116
REMARK   54  A    between atoms: _125  and  _127
REMARK   55  A    between atoms: _127  and  _128
REMARK   56  A    between atoms: _127  and  _130
REMARK   57  A    between atoms: _130  and  _131
REMARK   58  A    between atoms: _131  and  _132
REMARK   59  A    between atoms: _137  and  _139
REMARK   60  A    between atoms: _139  and  _140
REMARK   61  A    between atoms: _139  and  _142
REMARK   62  A    between atoms: _142  and  _143
REMARK   63  A    between atoms: _148  and  _149
REMARK   64  A    between atoms: _151  and  _153
REMARK   65  A    between atoms: _153  and  _154
REMARK   66  A    between atoms: _153  and  _156
REMARK                            x       y       z     vdW  Elec       q    Type
REMARK                         _______ _______ _______ _____ _____    ______ ____
ROOT
ATOM      1  O   HOH     1       8.454  20.451  20.614  0.00  0.00    +0.000 OA
ENDROOT
TORSDOF 0
REMARK  Name = ../refined-set-2016/4ej8/4ej8_pocket.pdb
REMARK  66 active torsions:
REMARK  status: ('A' for Active; 'I' for Inactive)
REMARK    1  A    between atoms: _1  and  _3
REMARK    2  A    between atoms: _3  and  _4
REMARK    3  A    between atoms: _3  and  _6
REMARK    4  A    between atoms: _6  and  _7
REMARK    5  A    between atoms: _7  and  _8
REMARK    6  A    between atoms: _11  and  _13
REMARK    7  A    between atoms: _13  and  _14
REMARK    8  A    between atoms: _13  and  _16
REMARK    9  A    between atoms: _16  and  _17
REMARK   10  A    between atoms: _27  and  _29
REMARK   11  A    between atoms: _29  and  _30
REMARK   12  A    between atoms: _29  and  _32
REMARK   13  A    between atoms: _32  and  _33
REMARK   14  A    between atoms: _33  and  _34
REMARK   15  A    between atoms: _34  and  _35
REMARK   16  A    between atoms: _35  and  _36
REMARK   17  A    between atoms: _41  and  _42
REMARK   18  A    between atoms: _47  and  _49
REMARK   19  A    between atoms: _49  and  _50
REMARK   20  A    between atoms: _49  and  _52
REMARK   21  A    between atoms: _52  and  _53
REMARK   22  A    between atoms: _53  and  _54
REMARK   23  A    between atoms: _54  and  _55
REMARK   24  A    between atoms: _55  and  _56
REMARK   25  A    between atoms: _60  and  _62
REMARK   26  A    between atoms: _62  and  _63
REMARK   27  A    between atoms: _62  and  _65
REMARK   28  A    between atoms: _65  and  _66
REMARK   29  A    between atoms: _66  and  _67
REMARK   30  A    between atoms: _69  and  _71
REMARK   31  A    between atoms: _71  and  _72
REMARK   32  A    between atoms: _71  and  _74
REMARK   33  A    between atoms: _74  and  _75
REMARK   34  A    between atoms: _78  and  _80
REMARK   35  A    between atoms: _80  and  _81
REMARK   36  A    between atoms: _80  and  _83
REMARK   37  A    between atoms: _83  and  _84
REMARK   38  A    between atoms: _87  and  _89
REMARK   39  A    between atoms: _89  and  _90
REMARK   40  A    between atoms: _89  and  _92
REMARK   41  A    between atoms: _92  and  _93
REMARK   42  A    between atoms: _93  and  _94
REMARK   43  A    between atoms: _94  and  _95
REMARK   44  A    between atoms: _95  and  _96
REMARK   45  A    between atoms: _100  and  _102
REMARK   46  A    between atoms: _102  and  _103
REMARK   47  A    between atoms: _102  and  _105
REMARK   48  A    between atoms: _108  and  _110
REMARK   49  A    between atoms: _110  and  _111
REMARK   50  A    between atoms: _110  and  _113
REMARK   51  A    between atoms: _113  and  _114
REMARK   52  A    between atoms: _114  and  _115
REMARK   53  A    between atoms: _115  and  _116
REMARK   54  A    between atoms: _125  and  _127
REMARK   55  A    between atoms: _127  and  _128
REMARK   56  A    between atoms: _127  and  _130
REMARK   57  A    between atoms: _130  and  _131
REMARK   58  A    between atoms: _131  and  _132
REMARK   59  A    between atoms: _137  and  _139
REMARK   60  A    between atoms: _139  and  _140
REMARK   61  A    between atoms: _139  and  _142
REMARK   62  A    between atoms: _142  and  _143
REMARK   63  A    between atoms: _148  and  _149
REMARK   64  A    between atoms: _151  and  _153
REMARK   65  A    between atoms: _153  and  _154
REMARK   66  A    between atoms: _153  and  _156
REMARK                            x       y       z     vdW  Elec       q    Type
REMARK                         _______ _______ _______ _____ _____    ______ ____
ROOT
ATOM      1  O   HOH     1      20.256  21.337  21.722  0.00  0.00    +0.000 OA
ENDROOT
TORSDOF 0
REMARK  Name = ../refined-set-2016/4ej8/4ej8_pocket.pdb
REMARK  66 active torsions:
REMARK  status: ('A' for Active; 'I' for Inactive)
REMARK    1  A    between atoms: _1  and  _3
REMARK    2  A    between atoms: _3  and  _4
REMARK    3  A    between atoms: _3  and  _6
REMARK    4  A    between atoms: _6  and  _7
REMARK    5  A    between atoms: _7  and  _8
REMARK    6  A    between atoms: _11  and  _13
REMARK    7  A    between atoms: _13  and  _14
REMARK    8  A    between atoms: _13  and  _16
REMARK    9  A    between atoms: _16  and  _17
REMARK   10  A    between atoms: _27  and  _29
REMARK   11  A    between atoms: _29  and  _30
REMARK   12  A    between atoms: _29  and  _32
REMARK   13  A    between atoms: _32  and  _33
REMARK   14  A    between atoms: _33  and  _34
REMARK   15  A    between atoms: _34  and  _35
REMARK   16  A    between atoms: _35  and  _36
REMARK   17  A    between atoms: _41  and  _42
REMARK   18  A    between atoms: _47  and  _49
REMARK   19  A    between atoms: _49  and  _50
REMARK   20  A    between atoms: _49  and  _52
REMARK   21  A    between atoms: _52  and  _53
REMARK   22  A    between atoms: _53  and  _54
REMARK   23  A    between atoms: _54  and  _55
REMARK   24  A    between atoms: _55  and  _56
REMARK   25  A    between atoms: _60  and  _62
REMARK   26  A    between atoms: _62  and  _63
REMARK   27  A    between atoms: _62  and  _65
REMARK   28  A    between atoms: _65  and  _66
REMARK   29  A    between atoms: _66  and  _67
REMARK   30  A    between atoms: _69  and  _71
REMARK   31  A    between atoms: _71  and  _72
REMARK   32  A    between atoms: _71  and  _74
REMARK   33  A    between atoms: _74  and  _75
REMARK   34  A    between atoms: _78  and  _80
REMARK   35  A    between atoms: _80  and  _81
REMARK   36  A    between atoms: _80  and  _83
REMARK   37  A    between atoms: _83  and  _84
REMARK   38  A    between atoms: _87  and  _89
REMARK   39  A    between atoms: _89  and  _90
REMARK   40  A    between atoms: _89  and  _92
REMARK   41  A    between atoms: _92  and  _93
REMARK   42  A    between atoms: _93  and  _94
REMARK   43  A    between atoms: _94  and  _95
REMARK   44  A    between atoms: _95  and  _96
REMARK   45  A    between atoms: _100  and  _102
REMARK   46  A    between atoms: _102  and  _103
REMARK   47  A    between atoms: _102  and  _105
REMARK   48  A    between atoms: _108  and  _110
REMARK   49  A    between atoms: _110  and  _111
REMARK   50  A    between atoms: _110  and  _113
REMARK   51  A    between atoms: _113  and  _114
REMARK   52  A    between atoms: _114  and  _115
REMARK   53  A    between atoms: _115  and  _116
REMARK   54  A    between atoms: _125  and  _127
REMARK   55  A    between atoms: _127  and  _128
REMARK   56  A    between atoms: _127  and  _130
REMARK   57  A    between atoms: _130  and  _131
REMARK   58  A    between atoms: _131  and  _132
REMARK   59  A    between atoms: _137  and  _139
REMARK   60  A    between atoms: _139  and  _140
REMARK   61  A    between atoms: _139  and  _142
REMARK   62  A    between atoms: _142  and  _143
REMARK   63  A    between atoms: _148  and  _149
REMARK   64  A    between atoms: _151  and  _153
REMARK   65  A    between atoms: _153  and  _154
REMARK   66  A    between atoms: _153  and  _156
REMARK                            x       y       z     vdW  Elec       q    Type
REMARK                         _______ _______ _______ _____ _____    ______ ____
ROOT
ATOM      1  O   HOH     1       6.694  23.479  25.999  0.00  0.00    +0.000 OA
ENDROOT
TORSDOF 0
REMARK  Name = ../refined-set-2016/4ej8/4ej8_pocket.pdb
REMARK  66 active torsions:
REMARK  status: ('A' for Active; 'I' for Inactive)
REMARK    1  A    between atoms: _1  and  _3
REMARK    2  A    between atoms: _3  and  _4
REMARK    3  A    between atoms: _3  and  _6
REMARK    4  A    between atoms: _6  and  _7
REMARK    5  A    between atoms: _7  and  _8
REMARK    6  A    between atoms: _11  and  _13
REMARK    7  A    between atoms: _13  and  _14
REMARK    8  A    between atoms: _13  and  _16
REMARK    9  A    between atoms: _16  and  _17
REMARK   10  A    between atoms: _27  and  _29
REMARK   11  A    between atoms: _29  and  _30
REMARK   12  A    between atoms: _29  and  _32
REMARK   13  A    between atoms: _32  and  _33
REMARK   14  A    between atoms: _33  and  _34
REMARK   15  A    between atoms: _34  and  _35
REMARK   16  A    between atoms: _35  and  _36
REMARK   17  A    between atoms: _41  and  _42
REMARK   18  A    between atoms: _47  and  _49
REMARK   19  A    between atoms: _49  and  _50
REMARK   20  A    between atoms: _49  and  _52
REMARK   21  A    between atoms: _52  and  _53
REMARK   22  A    between atoms: _53  and  _54
REMARK   23  A    between atoms: _54  and  _55
REMARK   24  A    between atoms: _55  and  _56
REMARK   25  A    between atoms: _60  and  _62
REMARK   26  A    between atoms: _62  and  _63
REMARK   27  A    between atoms: _62  and  _65
REMARK   28  A    between atoms: _65  and  _66
REMARK   29  A    between atoms: _66  and  _67
REMARK   30  A    between atoms: _69  and  _71
REMARK   31  A    between atoms: _71  and  _72
REMARK   32  A    between atoms: _71  and  _74
REMARK   33  A    between atoms: _74  and  _75
REMARK   34  A    between atoms: _78  and  _80
REMARK   35  A    between atoms: _80  and  _81
REMARK   36  A    between atoms: _80  and  _83
REMARK   37  A    between atoms: _83  and  _84
REMARK   38  A    between atoms: _87  and  _89
REMARK   39  A    between atoms: _89  and  _90
REMARK   40  A    between atoms: _89  and  _92
REMARK   41  A    between atoms: _92  and  _93
REMARK   42  A    between atoms: _93  and  _94
REMARK   43  A    between atoms: _94  and  _95
REMARK   44  A    between atoms: _95  and  _96
REMARK   45  A    between atoms: _100  and  _102
REMARK   46  A    between atoms: _102  and  _103
REMARK   47  A    between atoms: _102  and  _105
REMARK   48  A    between atoms: _108  and  _110
REMARK   49  A    between atoms: _110  and  _111
REMARK   50  A    between atoms: _110  and  _113
REMARK   51  A    between atoms: _113  and  _114
REMARK   52  A    between atoms: _114  and  _115
REMARK   53  A    between atoms: _115  and  _116
REMARK   54  A    between atoms: _125  and  _127
REMARK   55  A    between atoms: _127  and  _128
REMARK   56  A    between atoms: _127  and  _130
REMARK   57  A    between atoms: _130  and  _131
REMARK   58  A    between atoms: _131  and  _132
REMARK   59  A    between atoms: _137  and  _139
REMARK   60  A    between atoms: _139  and  _140
REMARK   61  A    between atoms: _139  and  _142
REMARK   62  A    between atoms: _142  and  _143
REMARK   63  A    between atoms: _148  and  _149
REMARK   64  A    between atoms: _151  and  _153
REMARK   65  A    between atoms: _153  and  _154
REMARK   66  A    between atoms: _153  and  _156
REMARK                            x       y       z     vdW  Elec       q    Type
REMARK                         _______ _______ _______ _____ _____    ______ ____
ROOT
ATOM      1  O   HOH     1      17.755  22.288  20.764  0.00  0.00    +0.000 OA
ENDROOT
TORSDOF 0
REMARK  Name = ../refined-set-2016/4ej8/4ej8_pocket.pdb
REMARK  66 active torsions:
REMARK  status: ('A' for Active; 'I' for Inactive)
REMARK    1  A    between atoms: _1  and  _3
REMARK    2  A    between atoms: _3  and  _4
REMARK    3  A    between atoms: _3  and  _6
REMARK    4  A    between atoms: _6  and  _7
REMARK    5  A    between atoms: _7  and  _8
REMARK    6  A    between atoms: _11  and  _13
REMARK    7  A    between atoms: _13  and  _14
REMARK    8  A    between atoms: _13  and  _16
REMARK    9  A    between atoms: _16  and  _17
REMARK   10  A    between atoms: _27  and  _29
REMARK   11  A    between atoms: _29  and  _30
REMARK   12  A    between atoms: _29  and  _32
REMARK   13  A    between atoms: _32  and  _33
REMARK   14  A    between atoms: _33  and  _34
REMARK   15  A    between atoms: _34  and  _35
REMARK   16  A    between atoms: _35  and  _36
REMARK   17  A    between atoms: _41  and  _42
REMARK   18  A    between atoms: _47  and  _49
REMARK   19  A    between atoms: _49  and  _50
REMARK   20  A    between atoms: _49  and  _52
REMARK   21  A    between atoms: _52  and  _53
REMARK   22  A    between atoms: _53  and  _54
REMARK   23  A    between atoms: _54  and  _55
REMARK   24  A    between atoms: _55  and  _56
REMARK   25  A    between atoms: _60  and  _62
REMARK   26  A    between atoms: _62  and  _63
REMARK   27  A    between atoms: _62  and  _65
REMARK   28  A    between atoms: _65  and  _66
REMARK   29  A    between atoms: _66  and  _67
REMARK   30  A    between atoms: _69  and  _71
REMARK   31  A    between atoms: _71  and  _72
REMARK   32  A    between atoms: _71  and  _74
REMARK   33  A    between atoms: _74  and  _75
REMARK   34  A    between atoms: _78  and  _80
REMARK   35  A    between atoms: _80  and  _81
REMARK   36  A    between atoms: _80  and  _83
REMARK   37  A    between atoms: _83  and  _84
REMARK   38  A    between atoms: _87  and  _89
REMARK   39  A    between atoms: _89  and  _90
REMARK   40  A    between atoms: _89  and  _92
REMARK   41  A    between atoms: _92  and  _93
REMARK   42  A    between atoms: _93  and  _94
REMARK   43  A    between atoms: _94  and  _95
REMARK   44  A    between atoms: _95  and  _96
REMARK   45  A    between atoms: _100  and  _102
REMARK   46  A    between atoms: _102  and  _103
REMARK   47  A    between atoms: _102  and  _105
REMARK   48  A    between atoms: _108  and  _110
REMARK   49  A    between atoms: _110  and  _111
REMARK   50  A    between atoms: _110  and  _113
REMARK   51  A    between atoms: _113  and  _114
REMARK   52  A    between atoms: _114  and  _115
REMARK   53  A    between atoms: _115  and  _116
REMARK   54  A    between atoms: _125  and  _127
REMARK   55  A    between atoms: _127  and  _128
REMARK   56  A    between atoms: _127  and  _130
REMARK   57  A    between atoms: _130  and  _131
REMARK   58  A    between atoms: _131  and  _132
REMARK   59  A    between atoms: _137  and  _139
REMARK   60  A    between atoms: _139  and  _140
REMARK   61  A    between atoms: _139  and  _142
REMARK   62  A    between atoms: _142  and  _143
REMARK   63  A    between atoms: _148  and  _149
REMARK   64  A    between atoms: _151  and  _153
REMARK   65  A    between atoms: _153  and  _154
REMARK   66  A    between atoms: _153  and  _156
REMARK                            x       y       z     vdW  Elec       q    Type
REMARK                         _______ _______ _______ _____ _____    ______ ____
ROOT
ATOM      1  O   HOH     1      20.273  18.779  19.366  0.00  0.00    +0.000 OA
ENDROOT
TORSDOF 0
REMARK  Name = ../refined-set-2016/4ej8/4ej8_pocket.pdb
REMARK  66 active torsions:
REMARK  status: ('A' for Active; 'I' for Inactive)
REMARK    1  A    between atoms: _1  and  _3
REMARK    2  A    between atoms: _3  and  _4
REMARK    3  A    between atoms: _3  and  _6
REMARK    4  A    between atoms: _6  and  _7
REMARK    5  A    between atoms: _7  and  _8
REMARK    6  A    between atoms: _11  and  _13
REMARK    7  A    between atoms: _13  and  _14
REMARK    8  A    between atoms: _13  and  _16
REMARK    9  A    between atoms: _16  and  _17
REMARK   10  A    between atoms: _27  and  _29
REMARK   11  A    between atoms: _29  and  _30
REMARK   12  A    between atoms: _29  and  _32
REMARK   13  A    between atoms: _32  and  _33
REMARK   14  A    between atoms: _33  and  _34
REMARK   15  A    between atoms: _34  and  _35
REMARK   16  A    between atoms: _35  and  _36
REMARK   17  A    between atoms: _41  and  _42
REMARK   18  A    between atoms: _47  and  _49
REMARK   19  A    between atoms: _49  and  _50
REMARK   20  A    between atoms: _49  and  _52
REMARK   21  A    between atoms: _52  and  _53
REMARK   22  A    between atoms: _53  and  _54
REMARK   23  A    between atoms: _54  and  _55
REMARK   24  A    between atoms: _55  and  _56
REMARK   25  A    between atoms: _60  and  _62
REMARK   26  A    between atoms: _62  and  _63
REMARK   27  A    between atoms: _62  and  _65
REMARK   28  A    between atoms: _65  and  _66
REMARK   29  A    between atoms: _66  and  _67
REMARK   30  A    between atoms: _69  and  _71
REMARK   31  A    between atoms: _71  and  _72
REMARK   32  A    between atoms: _71  and  _74
REMARK   33  A    between atoms: _74  and  _75
REMARK   34  A    between atoms: _78  and  _80
REMARK   35  A    between atoms: _80  and  _81
REMARK   36  A    between atoms: _80  and  _83
REMARK   37  A    between atoms: _83  and  _84
REMARK   38  A    between atoms: _87  and  _89
REMARK   39  A    between atoms: _89  and  _90
REMARK   40  A    between atoms: _89  and  _92
REMARK   41  A    between atoms: _92  and  _93
REMARK   42  A    between atoms: _93  and  _94
REMARK   43  A    between atoms: _94  and  _95
REMARK   44  A    between atoms: _95  and  _96
REMARK   45  A    between atoms: _100  and  _102
REMARK   46  A    between atoms: _102  and  _103
REMARK   47  A    between atoms: _102  and  _105
REMARK   48  A    between atoms: _108  and  _110
REMARK   49  A    between atoms: _110  and  _111
REMARK   50  A    between atoms: _110  and  _113
REMARK   51  A    between atoms: _113  and  _114
REMARK   52  A    between atoms: _114  and  _115
REMARK   53  A    between atoms: _115  and  _116
REMARK   54  A    between atoms: _125  and  _127
REMARK   55  A    between atoms: _127  and  _128
REMARK   56  A    between atoms: _127  and  _130
REMARK   57  A    between atoms: _130  and  _131
REMARK   58  A    between atoms: _131  and  _132
REMARK   59  A    between atoms: _137  and  _139
REMARK   60  A    between atoms: _139  and  _140
REMARK   61  A    between atoms: _139  and  _142
REMARK   62  A    between atoms: _142  and  _143
REMARK   63  A    between atoms: _148  and  _149
REMARK   64  A    between atoms: _151  and  _153
REMARK   65  A    between atoms: _153  and  _154
REMARK   66  A    between atoms: _153  and  _156
REMARK                            x       y       z     vdW  Elec       q    Type
REMARK                         _______ _______ _______ _____ _____    ______ ____
ROOT
ATOM      1  O   HOH     1      10.237  22.635  15.237  0.00  0.00    +0.000 OA
ENDROOT
TORSDOF 0
