REMARK  Name = ../refined-set-2016/3g1v/3g1v_pocket.pdb
REMARK  204 active torsions:
REMARK  status: ('A' for Active; 'I' for Inactive)
REMARK    1  A    between atoms: _1  and  _3
REMARK    2  A    between atoms: _3  and  _4
REMARK    3  A    between atoms: _3  and  _6
REMARK    4  A    between atoms: _6  and  _7
REMARK    5  A    between atoms: _10  and  _12
REMARK    6  A    between atoms: _12  and  _13
REMARK    7  A    between atoms: _12  and  _15
REMARK    8  A    between atoms: _15  and  _16
REMARK    9  A    between atoms: _19  and  _21
REMARK   10  A    between atoms: _21  and  _22
REMARK   11  A    between atoms: _25  and  _27
REMARK   12  A    between atoms: _27  and  _28
REMARK   13  A    between atoms: _27  and  _30
REMARK   14  A    between atoms: _30  and  _31
REMARK   15  A    between atoms: _31  and  _32
REMARK   16  A    between atoms: _34  and  _36
REMARK   17  A    between atoms: _36  and  _37
REMARK   18  A    between atoms: _36  and  _39
REMARK   19  A    between atoms: _39  and  _40
REMARK   20  A    between atoms: _43  and  _45
REMARK   21  A    between atoms: _45  and  _46
REMARK   22  A    between atoms: _45  and  _48
REMARK   23  A    between atoms: _48  and  _49
REMARK   24  A    between atoms: _49  and  _50
REMARK   25  A    between atoms: _50  and  _51
REMARK   26  A    between atoms: _51  and  _52
REMARK   27  A    between atoms: _56  and  _58
REMARK   28  A    between atoms: _58  and  _59
REMARK   29  A    between atoms: _58  and  _61
REMARK   30  A    between atoms: _61  and  _62
REMARK   31  A    between atoms: _65  and  _67
REMARK   32  A    between atoms: _67  and  _68
REMARK   33  A    between atoms: _70  and  _72
REMARK   34  A    between atoms: _72  and  _73
REMARK   35  A    between atoms: _72  and  _75
REMARK   36  A    between atoms: _75  and  _76
REMARK   37  A    between atoms: _81  and  _82
REMARK   38  A    between atoms: _85  and  _86
REMARK   39  A    between atoms: _91  and  _93
REMARK   40  A    between atoms: _93  and  _94
REMARK   41  A    between atoms: _93  and  _96
REMARK   42  A    between atoms: _96  and  _97
REMARK   43  A    between atoms: _100  and  _102
REMARK   44  A    between atoms: _102  and  _103
REMARK   45  A    between atoms: _105  and  _107
REMARK   46  A    between atoms: _107  and  _108
REMARK   47  A    between atoms: _107  and  _110
REMARK   48  A    between atoms: _110  and  _111
REMARK   49  A    between atoms: _111  and  _112
REMARK   50  A    between atoms: _112  and  _113
REMARK   51  A    between atoms: _113  and  _114
REMARK   52  A    between atoms: _118  and  _120
REMARK   53  A    between atoms: _120  and  _121
REMARK   54  A    between atoms: _120  and  _123
REMARK   55  A    between atoms: _123  and  _124
REMARK   56  A    between atoms: _127  and  _129
REMARK   57  A    between atoms: _129  and  _130
REMARK   58  A    between atoms: _129  and  _132
REMARK   59  A    between atoms: _135  and  _137
REMARK   60  A    between atoms: _137  and  _138
REMARK   61  A    between atoms: _137  and  _140
REMARK   62  A    between atoms: _140  and  _141
REMARK   63  A    between atoms: _146  and  _148
REMARK   64  A    between atoms: _148  and  _149
REMARK   65  A    between atoms: _148  and  _151
REMARK   66  A    between atoms: _151  and  _152
REMARK   67  A    between atoms: _155  and  _157
REMARK   68  A    between atoms: _157  and  _158
REMARK   69  A    between atoms: _157  and  _160
REMARK   70  A    between atoms: _160  and  _161
REMARK   71  A    between atoms: _164  and  _166
REMARK   72  A    between atoms: _166  and  _167
REMARK   73  A    between atoms: _166  and  _169
REMARK   74  A    between atoms: _169  and  _170
REMARK   75  A    between atoms: _170  and  _171
REMARK   76  A    between atoms: _174  and  _176
REMARK   77  A    between atoms: _176  and  _177
REMARK   78  A    between atoms: _176  and  _179
REMARK   79  A    between atoms: _179  and  _180
REMARK   80  A    between atoms: _180  and  _181
REMARK   81  A    between atoms: _183  and  _185
REMARK   82  A    between atoms: _185  and  _186
REMARK   83  A    between atoms: _185  and  _188
REMARK   84  A    between atoms: _188  and  _189
REMARK   85  A    between atoms: _191  and  _193
REMARK   86  A    between atoms: _193  and  _194
REMARK   87  A    between atoms: _193  and  _196
REMARK   88  A    between atoms: _196  and  _197
REMARK   89  A    between atoms: _202  and  _204
REMARK   90  A    between atoms: _204  and  _205
REMARK   91  A    between atoms: _208  and  _210
REMARK   92  A    between atoms: _210  and  _211
REMARK   93  A    between atoms: _210  and  _213
REMARK   94  A    between atoms: _213  and  _214
REMARK   95  A    between atoms: _217  and  _219
REMARK   96  A    between atoms: _219  and  _220
REMARK   97  A    between atoms: _219  and  _222
REMARK   98  A    between atoms: _225  and  _227
REMARK   99  A    between atoms: _227  and  _228
REMARK  100  A    between atoms: _231  and  _232
REMARK  101  A    between atoms: _237  and  _239
REMARK  102  A    between atoms: _239  and  _240
REMARK  103  A    between atoms: _239  and  _242
REMARK  104  A    between atoms: _242  and  _243
REMARK  105  A    between atoms: _245  and  _247
REMARK  106  A    between atoms: _247  and  _248
REMARK  107  A    between atoms: _247  and  _250
REMARK  108  A    between atoms: _250  and  _251
REMARK  109  A    between atoms: _254  and  _256
REMARK  110  A    between atoms: _256  and  _257
REMARK  111  A    between atoms: _256  and  _259
REMARK  112  A    between atoms: _259  and  _260
REMARK  113  A    between atoms: _260  and  _261
REMARK  114  A    between atoms: _261  and  _262
REMARK  115  A    between atoms: _271  and  _273
REMARK  116  A    between atoms: _273  and  _274
REMARK  117  A    between atoms: _273  and  _276
REMARK  118  A    between atoms: _276  and  _277
REMARK  119  A    between atoms: _280  and  _281
REMARK  120  A    between atoms: _286  and  _288
REMARK  121  A    between atoms: _288  and  _289
REMARK  122  A    between atoms: _291  and  _293
REMARK  123  A    between atoms: _293  and  _294
REMARK  124  A    between atoms: _293  and  _296
REMARK  125  A    between atoms: _299  and  _301
REMARK  126  A    between atoms: _301  and  _302
REMARK  127  A    between atoms: _304  and  _306
REMARK  128  A    between atoms: _306  and  _307
REMARK  129  A    between atoms: _310  and  _312
REMARK  130  A    between atoms: _312  and  _313
REMARK  131  A    between atoms: _312  and  _315
REMARK  132  A    between atoms: _315  and  _316
REMARK  133  A    between atoms: _316  and  _317
REMARK  134  A    between atoms: _322  and  _324
REMARK  135  A    between atoms: _324  and  _325
REMARK  136  A    between atoms: _327  and  _329
REMARK  137  A    between atoms: _329  and  _330
REMARK  138  A    between atoms: _332  and  _334
REMARK  139  A    between atoms: _334  and  _335
REMARK  140  A    between atoms: _334  and  _337
REMARK  141  A    between atoms: _337  and  _338
REMARK  142  A    between atoms: _341  and  _343
REMARK  143  A    between atoms: _343  and  _344
REMARK  144  A    between atoms: _343  and  _346
REMARK  145  A    between atoms: _349  and  _351
REMARK  146  A    between atoms: _351  and  _352
REMARK  147  A    between atoms: _354  and  _356
REMARK  148  A    between atoms: _356  and  _357
REMARK  149  A    between atoms: _356  and  _359
REMARK  150  A    between atoms: _359  and  _360
REMARK  151  A    between atoms: _360  and  _361
REMARK  152  A    between atoms: _361  and  _362
REMARK  153  A    between atoms: _371  and  _373
REMARK  154  A    between atoms: _373  and  _374
REMARK  155  A    between atoms: _373  and  _376
REMARK  156  A    between atoms: _376  and  _377
REMARK  157  A    between atoms: _379  and  _381
REMARK  158  A    between atoms: _381  and  _382
REMARK  159  A    between atoms: _381  and  _384
REMARK  160  A    between atoms: _384  and  _385
REMARK  161  A    between atoms: _388  and  _390
REMARK  162  A    between atoms: _390  and  _391
REMARK  163  A    between atoms: _390  and  _393
REMARK  164  A    between atoms: _393  and  _394
REMARK  165  A    between atoms: _399  and  _400
REMARK  166  A    between atoms: _402  and  _404
REMARK  167  A    between atoms: _404  and  _405
REMARK  168  A    between atoms: _404  and  _407
REMARK  169  A    between atoms: _407  and  _408
REMARK  170  A    between atoms: _411  and  _413
REMARK  171  A    between atoms: _413  and  _414
REMARK  172  A    between atoms: _417  and  _419
REMARK  173  A    between atoms: _419  and  _420
REMARK  174  A    between atoms: _419  and  _422
REMARK  175  A    between atoms: _422  and  _423
REMARK  176  A    between atoms: _426  and  _428
REMARK  177  A    between atoms: _428  and  _429
REMARK  178  A    between atoms: _428  and  _431
REMARK  179  A    between atoms: _431  and  _432
REMARK  180  A    between atoms: _436  and  _437
REMARK  181  A    between atoms: _442  and  _444
REMARK  182  A    between atoms: _444  and  _445
REMARK  183  A    between atoms: _444  and  _447
REMARK  184  A    between atoms: _447  and  _448
REMARK  185  A    between atoms: _448  and  _449
REMARK  186  A    between atoms: _452  and  _454
REMARK  187  A    between atoms: _454  and  _455
REMARK  188  A    between atoms: _454  and  _457
REMARK  189  A    between atoms: _457  and  _458
REMARK  190  A    between atoms: _461  and  _463
REMARK  191  A    between atoms: _463  and  _464
REMARK  192  A    between atoms: _463  and  _466
REMARK  193  A    between atoms: _466  and  _467
REMARK  194  A    between atoms: _472  and  _474
REMARK  195  A    between atoms: _474  and  _475
REMARK  196  A    between atoms: _474  and  _477
REMARK  197  A    between atoms: _477  and  _478
REMARK  198  A    between atoms: _478  and  _479
REMARK  199  A    between atoms: _479  and  _480
REMARK  200  A    between atoms: _480  and  _481
REMARK  201  A    between atoms: _485  and  _487
REMARK  202  A    between atoms: _487  and  _488
REMARK  203  A    between atoms: _487  and  _490
REMARK  204  A    between atoms: _490  and  _491
REMARK                            x       y       z     vdW  Elec       q    Type
REMARK                         _______ _______ _______ _____ _____    ______ ____
ROOT
ATOM      1  CA  ALA A   3      11.045  -4.744   0.842  0.00  0.00    +0.149 C 
ATOM      2  CB  ALA A   3      10.311  -3.622   1.567  0.00  0.00    +0.031 C 
ENDROOT
BRANCH   1   4
ATOM      3  C   LEU A   2      10.307  -6.501  -0.674  0.00  0.00    +0.241 C 
ATOM      4  N   ALA A   3      10.111  -5.790   0.434  0.00  0.00    -0.297 N 
ATOM      5  H   ALA A   3       9.275  -5.983   1.022  0.00  0.00    +0.150 HD
ATOM      6  O   LEU A   2      11.230  -6.283  -1.458  0.00  0.00    -0.273 OA
BRANCH   3   7
ATOM      7  CA  LEU A   2       9.307  -7.613  -0.957  0.00  0.00    +0.149 C 
BRANCH   7  10
ATOM      8  C   ILE A   1       7.691  -6.652  -2.483  0.00  0.00    +0.238 C 
ATOM      9  O   ILE A   1       7.179  -5.985  -1.585  0.00  0.00    -0.274 OA
ATOM     10  N   LEU A   2       8.715  -7.467  -2.277  0.00  0.00    -0.297 N 
ATOM     11  H   LEU A   2       9.102  -8.012  -3.074  0.00  0.00    +0.150 HD
BRANCH   8  12
ATOM     12  CA  ILE A   1       7.160  -6.578  -3.906  0.00  0.00    +0.145 C 
BRANCH  12  13
ATOM     13  CB  ILE A   1       7.383  -5.148  -4.442  0.00  0.00    +0.025 C 
ATOM     14  CG2 ILE A   1       8.862  -4.771  -4.337  0.00  0.00    +0.002 C 
BRANCH  13  15
ATOM     15  CG1 ILE A   1       6.892  -5.056  -5.886  0.00  0.00    +0.002 C 
ATOM     16  CD1 ILE A   1       6.868  -3.640  -6.428  0.00  0.00    +0.000 C 
ENDBRANCH  13  15
ENDBRANCH  12  13
BRANCH  12  17
ATOM     17  N   ILE A   1       5.744  -6.920  -3.886  0.00  0.00    -0.238 NA
ATOM     18  H   ILE A   1       5.074  -6.259  -3.443  0.00  0.00    +0.142 HD
ENDBRANCH  12  17
ENDBRANCH   8  12
ENDBRANCH   7  10
BRANCH   7  19
ATOM     19  CB  LEU A   2      10.026  -8.960  -0.854  0.00  0.00    +0.029 C 
BRANCH  19  20
ATOM     20  CG  LEU A   2      10.831  -9.206   0.428  0.00  0.00    +0.002 C 
ATOM     21  CD2 LEU A   2       9.879  -9.340   1.614  0.00  0.00    +0.000 C 
ATOM     22  CD1 LEU A   2      11.675 -10.466   0.275  0.00  0.00    +0.000 C 
ENDBRANCH  19  20
ENDBRANCH   7  19
ENDBRANCH   3   7
ENDBRANCH   1   4
BRANCH   1  23
ATOM     23  C   ALA A   3      12.009  -5.456   1.788  0.00  0.00    +0.241 C 
ATOM     24  O   ALA A   3      11.686  -5.708   2.952  0.00  0.00    -0.273 OA
ATOM     25  N   MET A   4      13.187  -5.799   1.279  0.00  0.00    -0.297 N 
ATOM     26  H   MET A   4      13.411  -5.548   0.295  0.00  0.00    +0.150 HD
BRANCH  25  27
ATOM     27  CA  MET A   4      14.171  -6.521   2.075  0.00  0.00    +0.149 C 
BRANCH  27  28
ATOM     28  C   MET A   4      15.106  -5.573   2.804  0.00  0.00    +0.241 C 
ATOM     29  N   ASP A   5      14.692  -5.191   4.011  0.00  0.00    -0.298 N 
ATOM     30  H   ASP A   5      13.797  -5.570   4.380  0.00  0.00    +0.150 HD
ATOM     31  O   MET A   4      16.170  -5.205   2.295  0.00  0.00    -0.273 OA
BRANCH  29  32
ATOM     32  CA  ASP A   5      15.451  -4.262   4.828  0.00  0.00    +0.148 C 
BRANCH  32  33
ATOM     33  C   ASP A   5      16.196  -4.879   6.005  0.00  0.00    +0.227 C 
ATOM     34  O   ASP A   5      16.575  -4.173   6.942  0.00  0.00    -0.286 OA
ENDBRANCH  32  33
BRANCH  32  35
ATOM     35  CB  ASP A   5      14.540  -3.125   5.303  0.00  0.00    +0.142 C 
BRANCH  35  36
ATOM     36  CG  ASP A   5      13.989  -2.306   4.148  0.00  0.00    +0.367 C 
ATOM     37  OD2 ASP A   5      12.761  -2.103   4.102  0.00  0.00    -0.246 OA
ATOM     38  OD1 ASP A   5      14.786  -1.864   3.289  0.00  0.00    -0.246 OA
ENDBRANCH  35  36
ENDBRANCH  32  35
ENDBRANCH  29  32
ENDBRANCH  27  28
BRANCH  27  39
ATOM     39  CB  MET A   4      14.956  -7.482   1.177  0.00  0.00    +0.041 C 
BRANCH  39  40
ATOM     40  CG  MET A   4      16.023  -8.291   1.902  0.00  0.00    +0.060 C 
BRANCH  40  41
ATOM     41  SD  MET A   4      15.571  -8.842   3.576  0.00  0.00    -0.139 S 
ATOM     42  CE  MET A   4      14.199  -9.920   3.236  0.00  0.00    +0.069 C 
ENDBRANCH  40  41
ENDBRANCH  39  40
ENDBRANCH  27  39
ENDBRANCH  25  27
ENDBRANCH   1  23
TORSDOF 19
REMARK  Name = ../refined-set-2016/3g1v/3g1v_pocket.pdb
REMARK  204 active torsions:
REMARK  status: ('A' for Active; 'I' for Inactive)
REMARK    1  A    between atoms: _1  and  _3
REMARK    2  A    between atoms: _3  and  _4
REMARK    3  A    between atoms: _3  and  _6
REMARK    4  A    between atoms: _6  and  _7
REMARK    5  A    between atoms: _10  and  _12
REMARK    6  A    between atoms: _12  and  _13
REMARK    7  A    between atoms: _12  and  _15
REMARK    8  A    between atoms: _15  and  _16
REMARK    9  A    between atoms: _19  and  _21
REMARK   10  A    between atoms: _21  and  _22
REMARK   11  A    between atoms: _25  and  _27
REMARK   12  A    between atoms: _27  and  _28
REMARK   13  A    between atoms: _27  and  _30
REMARK   14  A    between atoms: _30  and  _31
REMARK   15  A    between atoms: _31  and  _32
REMARK   16  A    between atoms: _34  and  _36
REMARK   17  A    between atoms: _36  and  _37
REMARK   18  A    between atoms: _36  and  _39
REMARK   19  A    between atoms: _39  and  _40
REMARK   20  A    between atoms: _43  and  _45
REMARK   21  A    between atoms: _45  and  _46
REMARK   22  A    between atoms: _45  and  _48
REMARK   23  A    between atoms: _48  and  _49
REMARK   24  A    between atoms: _49  and  _50
REMARK   25  A    between atoms: _50  and  _51
REMARK   26  A    between atoms: _51  and  _52
REMARK   27  A    between atoms: _56  and  _58
REMARK   28  A    between atoms: _58  and  _59
REMARK   29  A    between atoms: _58  and  _61
REMARK   30  A    between atoms: _61  and  _62
REMARK   31  A    between atoms: _65  and  _67
REMARK   32  A    between atoms: _67  and  _68
REMARK   33  A    between atoms: _70  and  _72
REMARK   34  A    between atoms: _72  and  _73
REMARK   35  A    between atoms: _72  and  _75
REMARK   36  A    between atoms: _75  and  _76
REMARK   37  A    between atoms: _81  and  _82
REMARK   38  A    between atoms: _85  and  _86
REMARK   39  A    between atoms: _91  and  _93
REMARK   40  A    between atoms: _93  and  _94
REMARK   41  A    between atoms: _93  and  _96
REMARK   42  A    between atoms: _96  and  _97
REMARK   43  A    between atoms: _100  and  _102
REMARK   44  A    between atoms: _102  and  _103
REMARK   45  A    between atoms: _105  and  _107
REMARK   46  A    between atoms: _107  and  _108
REMARK   47  A    between atoms: _107  and  _110
REMARK   48  A    between atoms: _110  and  _111
REMARK   49  A    between atoms: _111  and  _112
REMARK   50  A    between atoms: _112  and  _113
REMARK   51  A    between atoms: _113  and  _114
REMARK   52  A    between atoms: _118  and  _120
REMARK   53  A    between atoms: _120  and  _121
REMARK   54  A    between atoms: _120  and  _123
REMARK   55  A    between atoms: _123  and  _124
REMARK   56  A    between atoms: _127  and  _129
REMARK   57  A    between atoms: _129  and  _130
REMARK   58  A    between atoms: _129  and  _132
REMARK   59  A    between atoms: _135  and  _137
REMARK   60  A    between atoms: _137  and  _138
REMARK   61  A    between atoms: _137  and  _140
REMARK   62  A    between atoms: _140  and  _141
REMARK   63  A    between atoms: _146  and  _148
REMARK   64  A    between atoms: _148  and  _149
REMARK   65  A    between atoms: _148  and  _151
REMARK   66  A    between atoms: _151  and  _152
REMARK   67  A    between atoms: _155  and  _157
REMARK   68  A    between atoms: _157  and  _158
REMARK   69  A    between atoms: _157  and  _160
REMARK   70  A    between atoms: _160  and  _161
REMARK   71  A    between atoms: _164  and  _166
REMARK   72  A    between atoms: _166  and  _167
REMARK   73  A    between atoms: _166  and  _169
REMARK   74  A    between atoms: _169  and  _170
REMARK   75  A    between atoms: _170  and  _171
REMARK   76  A    between atoms: _174  and  _176
REMARK   77  A    between atoms: _176  and  _177
REMARK   78  A    between atoms: _176  and  _179
REMARK   79  A    between atoms: _179  and  _180
REMARK   80  A    between atoms: _180  and  _181
REMARK   81  A    between atoms: _183  and  _185
REMARK   82  A    between atoms: _185  and  _186
REMARK   83  A    between atoms: _185  and  _188
REMARK   84  A    between atoms: _188  and  _189
REMARK   85  A    between atoms: _191  and  _193
REMARK   86  A    between atoms: _193  and  _194
REMARK   87  A    between atoms: _193  and  _196
REMARK   88  A    between atoms: _196  and  _197
REMARK   89  A    between atoms: _202  and  _204
REMARK   90  A    between atoms: _204  and  _205
REMARK   91  A    between atoms: _208  and  _210
REMARK   92  A    between atoms: _210  and  _211
REMARK   93  A    between atoms: _210  and  _213
REMARK   94  A    between atoms: _213  and  _214
REMARK   95  A    between atoms: _217  and  _219
REMARK   96  A    between atoms: _219  and  _220
REMARK   97  A    between atoms: _219  and  _222
REMARK   98  A    between atoms: _225  and  _227
REMARK   99  A    between atoms: _227  and  _228
REMARK  100  A    between atoms: _231  and  _232
REMARK  101  A    between atoms: _237  and  _239
REMARK  102  A    between atoms: _239  and  _240
REMARK  103  A    between atoms: _239  and  _242
REMARK  104  A    between atoms: _242  and  _243
REMARK  105  A    between atoms: _245  and  _247
REMARK  106  A    between atoms: _247  and  _248
REMARK  107  A    between atoms: _247  and  _250
REMARK  108  A    between atoms: _250  and  _251
REMARK  109  A    between atoms: _254  and  _256
REMARK  110  A    between atoms: _256  and  _257
REMARK  111  A    between atoms: _256  and  _259
REMARK  112  A    between atoms: _259  and  _260
REMARK  113  A    between atoms: _260  and  _261
REMARK  114  A    between atoms: _261  and  _262
REMARK  115  A    between atoms: _271  and  _273
REMARK  116  A    between atoms: _273  and  _274
REMARK  117  A    between atoms: _273  and  _276
REMARK  118  A    between atoms: _276  and  _277
REMARK  119  A    between atoms: _280  and  _281
REMARK  120  A    between atoms: _286  and  _288
REMARK  121  A    between atoms: _288  and  _289
REMARK  122  A    between atoms: _291  and  _293
REMARK  123  A    between atoms: _293  and  _294
REMARK  124  A    between atoms: _293  and  _296
REMARK  125  A    between atoms: _299  and  _301
REMARK  126  A    between atoms: _301  and  _302
REMARK  127  A    between atoms: _304  and  _306
REMARK  128  A    between atoms: _306  and  _307
REMARK  129  A    between atoms: _310  and  _312
REMARK  130  A    between atoms: _312  and  _313
REMARK  131  A    between atoms: _312  and  _315
REMARK  132  A    between atoms: _315  and  _316
REMARK  133  A    between atoms: _316  and  _317
REMARK  134  A    between atoms: _322  and  _324
REMARK  135  A    between atoms: _324  and  _325
REMARK  136  A    between atoms: _327  and  _329
REMARK  137  A    between atoms: _329  and  _330
REMARK  138  A    between atoms: _332  and  _334
REMARK  139  A    between atoms: _334  and  _335
REMARK  140  A    between atoms: _334  and  _337
REMARK  141  A    between atoms: _337  and  _338
REMARK  142  A    between atoms: _341  and  _343
REMARK  143  A    between atoms: _343  and  _344
REMARK  144  A    between atoms: _343  and  _346
REMARK  145  A    between atoms: _349  and  _351
REMARK  146  A    between atoms: _351  and  _352
REMARK  147  A    between atoms: _354  and  _356
REMARK  148  A    between atoms: _356  and  _357
REMARK  149  A    between atoms: _356  and  _359
REMARK  150  A    between atoms: _359  and  _360
REMARK  151  A    between atoms: _360  and  _361
REMARK  152  A    between atoms: _361  and  _362
REMARK  153  A    between atoms: _371  and  _373
REMARK  154  A    between atoms: _373  and  _374
REMARK  155  A    between atoms: _373  and  _376
REMARK  156  A    between atoms: _376  and  _377
REMARK  157  A    between atoms: _379  and  _381
REMARK  158  A    between atoms: _381  and  _382
REMARK  159  A    between atoms: _381  and  _384
REMARK  160  A    between atoms: _384  and  _385
REMARK  161  A    between atoms: _388  and  _390
REMARK  162  A    between atoms: _390  and  _391
REMARK  163  A    between atoms: _390  and  _393
REMARK  164  A    between atoms: _393  and  _394
REMARK  165  A    between atoms: _399  and  _400
REMARK  166  A    between atoms: _402  and  _404
REMARK  167  A    between atoms: _404  and  _405
REMARK  168  A    between atoms: _404  and  _407
REMARK  169  A    between atoms: _407  and  _408
REMARK  170  A    between atoms: _411  and  _413
REMARK  171  A    between atoms: _413  and  _414
REMARK  172  A    between atoms: _417  and  _419
REMARK  173  A    between atoms: _419  and  _420
REMARK  174  A    between atoms: _419  and  _422
REMARK  175  A    between atoms: _422  and  _423
REMARK  176  A    between atoms: _426  and  _428
REMARK  177  A    between atoms: _428  and  _429
REMARK  178  A    between atoms: _428  and  _431
REMARK  179  A    between atoms: _431  and  _432
REMARK  180  A    between atoms: _436  and  _437
REMARK  181  A    between atoms: _442  and  _444
REMARK  182  A    between atoms: _444  and  _445
REMARK  183  A    between atoms: _444  and  _447
REMARK  184  A    between atoms: _447  and  _448
REMARK  185  A    between atoms: _448  and  _449
REMARK  186  A    between atoms: _452  and  _454
REMARK  187  A    between atoms: _454  and  _455
REMARK  188  A    between atoms: _454  and  _457
REMARK  189  A    between atoms: _457  and  _458
REMARK  190  A    between atoms: _461  and  _463
REMARK  191  A    between atoms: _463  and  _464
REMARK  192  A    between atoms: _463  and  _466
REMARK  193  A    between atoms: _466  and  _467
REMARK  194  A    between atoms: _472  and  _474
REMARK  195  A    between atoms: _474  and  _475
REMARK  196  A    between atoms: _474  and  _477
REMARK  197  A    between atoms: _477  and  _478
REMARK  198  A    between atoms: _478  and  _479
REMARK  199  A    between atoms: _479  and  _480
REMARK  200  A    between atoms: _480  and  _481
REMARK  201  A    between atoms: _485  and  _487
REMARK  202  A    between atoms: _487  and  _488
REMARK  203  A    between atoms: _487  and  _490
REMARK  204  A    between atoms: _490  and  _491
REMARK                            x       y       z     vdW  Elec       q    Type
REMARK                         _______ _______ _______ _____ _____    ______ ____
ROOT
ATOM      1  C   GLY A   3      18.799   0.007   0.859  0.00  0.00    +0.243 C 
ATOM      2  N   TYR A   4      19.001   1.176   1.452  0.00  0.00    -0.297 N 
ATOM      3  H   TYR A   4      18.253   1.898   1.421  0.00  0.00    +0.150 HD
ATOM      4  O   GLY A   3      19.622  -0.911   0.880  0.00  0.00    -0.273 OA
ENDROOT
BRANCH   2   5
ATOM      5  CA  TYR A   4      20.242   1.469   2.143  0.00  0.00    +0.153 C 
BRANCH   5   6
ATOM      6  C   TYR A   4      20.534   0.623   3.381  0.00  0.00    +0.244 C 
ATOM      7  N   PRO A   5      19.502   0.187   4.127  0.00  0.00    -0.272 N 
ATOM      8  CA  PRO A   5      19.841  -0.628   5.298  0.00  0.00    +0.152 C 
ATOM      9  CB  PRO A   5      18.476  -1.027   5.844  0.00  0.00    +0.031 C 
ATOM     10  CG  PRO A   5      17.644   0.184   5.546  0.00  0.00    +0.024 C 
ATOM     11  CD  PRO A   5      18.066   0.530   4.125  0.00  0.00    +0.094 C 
ATOM     12  O   TYR A   4      21.697   0.356   3.671  0.00  0.00    -0.273 OA
BRANCH   8  13
ATOM     13  C   PRO A   5      20.697  -1.837   4.920  0.00  0.00    +0.241 C 
ATOM     14  O   PRO A   5      21.704  -2.121   5.570  0.00  0.00    -0.273 OA
ATOM     15  N   LEU A   6      20.307  -2.539   3.862  0.00  0.00    -0.298 N 
ATOM     16  H   LEU A   6      19.454  -2.253   3.340  0.00  0.00    +0.150 HD
BRANCH  15  17
ATOM     17  CA  LEU A   6      21.062  -3.706   3.426  0.00  0.00    +0.137 C 
BRANCH  17  18
ATOM     18  C   LEU A   6      22.315  -3.337   2.629  0.00  0.00    +0.227 C 
ATOM     19  O   LEU A   6      23.390  -3.885   2.865  0.00  0.00    -0.286 OA
ENDBRANCH  17  18
BRANCH  17  20
ATOM     20  CB  LEU A   6      20.169  -4.626   2.590  0.00  0.00    +0.028 C 
BRANCH  20  21
ATOM     21  CG  LEU A   6      20.807  -5.942   2.129  0.00  0.00    +0.002 C 
ATOM     22  CD2 LEU A   6      21.361  -6.714   3.318  0.00  0.00    +0.000 C 
ATOM     23  CD1 LEU A   6      19.768  -6.769   1.395  0.00  0.00    +0.000 C 
ENDBRANCH  20  21
ENDBRANCH  17  20
ENDBRANCH  15  17
ENDBRANCH   8  13
ENDBRANCH   5   6
BRANCH   5  24
ATOM     24  CB  TYR A   4      20.304   2.964   2.460  0.00  0.00    +0.055 C 
BRANCH  24  25
ATOM     25  CG  TYR A   4      20.549   3.810   1.226  0.00  0.00    -0.020 A 
ATOM     26  CD2 TYR A   4      19.813   4.971   0.992  0.00  0.00    -0.001 A 
ATOM     27  CE2 TYR A   4      20.047   5.759  -0.135  0.00  0.00    +0.036 A 
ATOM     28  CZ  TYR A   4      21.029   5.383  -1.038  0.00  0.00    +0.134 A 
ATOM     29  CE1 TYR A   4      21.771   4.235  -0.828  0.00  0.00    +0.036 A 
ATOM     30  CD1 TYR A   4      21.528   3.456   0.297  0.00  0.00    -0.001 A 
BRANCH  28  31
ATOM     31  OH  TYR A   4      21.292   6.142  -2.156  0.00  0.00    -0.506 OA
ATOM     32  HH  TYR A   4      20.687   6.926  -2.171  0.00  0.00    +0.292 HD
ENDBRANCH  28  31
ENDBRANCH  24  25
ENDBRANCH   5  24
ENDBRANCH   2   5
BRANCH   1  33
ATOM     33  CA  GLY A   3      17.468  -0.145   0.157  0.00  0.00    +0.176 C 
BRANCH  33  35
ATOM     34  C   ILE A   2      16.933  -1.847  -1.471  0.00  0.00    +0.241 C 
ATOM     35  N   GLY A   3      17.162  -1.515  -0.205  0.00  0.00    -0.295 N 
ATOM     36  H   GLY A   3      17.121  -2.246   0.534  0.00  0.00    +0.150 HD
ATOM     37  O   ILE A   2      16.969  -1.035  -2.398  0.00  0.00    -0.273 OA
BRANCH  34  38
ATOM     38  CA  ILE A   2      16.602  -3.308  -1.736  0.00  0.00    +0.148 C 
BRANCH  38  41
ATOM     39  C   LYS A   1      14.267  -3.761  -2.246  0.00  0.00    +0.238 C 
ATOM     40  O   LYS A   1      14.051  -4.222  -1.122  0.00  0.00    -0.274 OA
ATOM     41  N   ILE A   2      15.460  -3.331  -2.636  0.00  0.00    -0.297 N 
ATOM     42  H   ILE A   2      15.582  -3.001  -3.615  0.00  0.00    +0.150 HD
BRANCH  39  43
ATOM     43  CA  LYS A   1      13.159  -3.707  -3.293  0.00  0.00    +0.145 C 
BRANCH  43  44
ATOM     44  N   LYS A   1      12.682  -5.072  -3.469  0.00  0.00    -0.238 NA
ATOM     45  H   LYS A   1      12.011  -5.468  -2.780  0.00  0.00    +0.142 HD
ENDBRANCH  43  44
BRANCH  43  46
ATOM     46  CB  LYS A   1      12.039  -2.775  -2.810  0.00  0.00    +0.026 C 
BRANCH  46  47
ATOM     47  CG  LYS A   1      12.468  -1.310  -2.721  0.00  0.00    -0.000 C 
BRANCH  47  48
ATOM     48  CD  LYS A   1      11.327  -0.390  -2.295  0.00  0.00    -0.024 C 
BRANCH  48  49
ATOM     49  CE  LYS A   1      11.033  -0.474  -0.803  0.00  0.00    -0.086 C 
BRANCH  49  50
ATOM     50  NZ  LYS A   1      12.145   0.078   0.028  0.00  0.00    +0.380 N 
ATOM     51  HZ1 LYS A   1      11.897  -0.002   1.035  0.00  0.00    -0.089 HD
ATOM     52  HZ2 LYS A   1      13.016  -0.459  -0.159  0.00  0.00    -0.089 HD
ATOM     53  HZ3 LYS A   1      12.294   1.078  -0.215  0.00  0.00    -0.089 HD
ENDBRANCH  49  50
ENDBRANCH  48  49
ENDBRANCH  47  48
ENDBRANCH  46  47
ENDBRANCH  43  46
ENDBRANCH  39  43
ENDBRANCH  38  41
BRANCH  38  54
ATOM     54  CB  ILE A   2      17.819  -4.018  -2.364  0.00  0.00    +0.027 C 
ATOM     55  CG2 ILE A   2      19.057  -3.781  -1.515  0.00  0.00    +0.002 C 
BRANCH  54  56
ATOM     56  CG1 ILE A   2      17.532  -5.519  -2.485  0.00  0.00    +0.002 C 
ATOM     57  CD1 ILE A   2      18.639  -6.313  -3.154  0.00  0.00    +0.000 C 
ENDBRANCH  54  56
ENDBRANCH  38  54
ENDBRANCH  34  38
ENDBRANCH  33  35
ENDBRANCH   1  33
TORSDOF 23
REMARK  Name = ../refined-set-2016/3g1v/3g1v_pocket.pdb
REMARK  204 active torsions:
REMARK  status: ('A' for Active; 'I' for Inactive)
REMARK    1  A    between atoms: _1  and  _3
REMARK    2  A    between atoms: _3  and  _4
REMARK    3  A    between atoms: _3  and  _6
REMARK    4  A    between atoms: _6  and  _7
REMARK    5  A    between atoms: _10  and  _12
REMARK    6  A    between atoms: _12  and  _13
REMARK    7  A    between atoms: _12  and  _15
REMARK    8  A    between atoms: _15  and  _16
REMARK    9  A    between atoms: _19  and  _21
REMARK   10  A    between atoms: _21  and  _22
REMARK   11  A    between atoms: _25  and  _27
REMARK   12  A    between atoms: _27  and  _28
REMARK   13  A    between atoms: _27  and  _30
REMARK   14  A    between atoms: _30  and  _31
REMARK   15  A    between atoms: _31  and  _32
REMARK   16  A    between atoms: _34  and  _36
REMARK   17  A    between atoms: _36  and  _37
REMARK   18  A    between atoms: _36  and  _39
REMARK   19  A    between atoms: _39  and  _40
REMARK   20  A    between atoms: _43  and  _45
REMARK   21  A    between atoms: _45  and  _46
REMARK   22  A    between atoms: _45  and  _48
REMARK   23  A    between atoms: _48  and  _49
REMARK   24  A    between atoms: _49  and  _50
REMARK   25  A    between atoms: _50  and  _51
REMARK   26  A    between atoms: _51  and  _52
REMARK   27  A    between atoms: _56  and  _58
REMARK   28  A    between atoms: _58  and  _59
REMARK   29  A    between atoms: _58  and  _61
REMARK   30  A    between atoms: _61  and  _62
REMARK   31  A    between atoms: _65  and  _67
REMARK   32  A    between atoms: _67  and  _68
REMARK   33  A    between atoms: _70  and  _72
REMARK   34  A    between atoms: _72  and  _73
REMARK   35  A    between atoms: _72  and  _75
REMARK   36  A    between atoms: _75  and  _76
REMARK   37  A    between atoms: _81  and  _82
REMARK   38  A    between atoms: _85  and  _86
REMARK   39  A    between atoms: _91  and  _93
REMARK   40  A    between atoms: _93  and  _94
REMARK   41  A    between atoms: _93  and  _96
REMARK   42  A    between atoms: _96  and  _97
REMARK   43  A    between atoms: _100  and  _102
REMARK   44  A    between atoms: _102  and  _103
REMARK   45  A    between atoms: _105  and  _107
REMARK   46  A    between atoms: _107  and  _108
REMARK   47  A    between atoms: _107  and  _110
REMARK   48  A    between atoms: _110  and  _111
REMARK   49  A    between atoms: _111  and  _112
REMARK   50  A    between atoms: _112  and  _113
REMARK   51  A    between atoms: _113  and  _114
REMARK   52  A    between atoms: _118  and  _120
REMARK   53  A    between atoms: _120  and  _121
REMARK   54  A    between atoms: _120  and  _123
REMARK   55  A    between atoms: _123  and  _124
REMARK   56  A    between atoms: _127  and  _129
REMARK   57  A    between atoms: _129  and  _130
REMARK   58  A    between atoms: _129  and  _132
REMARK   59  A    between atoms: _135  and  _137
REMARK   60  A    between atoms: _137  and  _138
REMARK   61  A    between atoms: _137  and  _140
REMARK   62  A    between atoms: _140  and  _141
REMARK   63  A    between atoms: _146  and  _148
REMARK   64  A    between atoms: _148  and  _149
REMARK   65  A    between atoms: _148  and  _151
REMARK   66  A    between atoms: _151  and  _152
REMARK   67  A    between atoms: _155  and  _157
REMARK   68  A    between atoms: _157  and  _158
REMARK   69  A    between atoms: _157  and  _160
REMARK   70  A    between atoms: _160  and  _161
REMARK   71  A    between atoms: _164  and  _166
REMARK   72  A    between atoms: _166  and  _167
REMARK   73  A    between atoms: _166  and  _169
REMARK   74  A    between atoms: _169  and  _170
REMARK   75  A    between atoms: _170  and  _171
REMARK   76  A    between atoms: _174  and  _176
REMARK   77  A    between atoms: _176  and  _177
REMARK   78  A    between atoms: _176  and  _179
REMARK   79  A    between atoms: _179  and  _180
REMARK   80  A    between atoms: _180  and  _181
REMARK   81  A    between atoms: _183  and  _185
REMARK   82  A    between atoms: _185  and  _186
REMARK   83  A    between atoms: _185  and  _188
REMARK   84  A    between atoms: _188  and  _189
REMARK   85  A    between atoms: _191  and  _193
REMARK   86  A    between atoms: _193  and  _194
REMARK   87  A    between atoms: _193  and  _196
REMARK   88  A    between atoms: _196  and  _197
REMARK   89  A    between atoms: _202  and  _204
REMARK   90  A    between atoms: _204  and  _205
REMARK   91  A    between atoms: _208  and  _210
REMARK   92  A    between atoms: _210  and  _211
REMARK   93  A    between atoms: _210  and  _213
REMARK   94  A    between atoms: _213  and  _214
REMARK   95  A    between atoms: _217  and  _219
REMARK   96  A    between atoms: _219  and  _220
REMARK   97  A    between atoms: _219  and  _222
REMARK   98  A    between atoms: _225  and  _227
REMARK   99  A    between atoms: _227  and  _228
REMARK  100  A    between atoms: _231  and  _232
REMARK  101  A    between atoms: _237  and  _239
REMARK  102  A    between atoms: _239  and  _240
REMARK  103  A    between atoms: _239  and  _242
REMARK  104  A    between atoms: _242  and  _243
REMARK  105  A    between atoms: _245  and  _247
REMARK  106  A    between atoms: _247  and  _248
REMARK  107  A    between atoms: _247  and  _250
REMARK  108  A    between atoms: _250  and  _251
REMARK  109  A    between atoms: _254  and  _256
REMARK  110  A    between atoms: _256  and  _257
REMARK  111  A    between atoms: _256  and  _259
REMARK  112  A    between atoms: _259  and  _260
REMARK  113  A    between atoms: _260  and  _261
REMARK  114  A    between atoms: _261  and  _262
REMARK  115  A    between atoms: _271  and  _273
REMARK  116  A    between atoms: _273  and  _274
REMARK  117  A    between atoms: _273  and  _276
REMARK  118  A    between atoms: _276  and  _277
REMARK  119  A    between atoms: _280  and  _281
REMARK  120  A    between atoms: _286  and  _288
REMARK  121  A    between atoms: _288  and  _289
REMARK  122  A    between atoms: _291  and  _293
REMARK  123  A    between atoms: _293  and  _294
REMARK  124  A    between atoms: _293  and  _296
REMARK  125  A    between atoms: _299  and  _301
REMARK  126  A    between atoms: _301  and  _302
REMARK  127  A    between atoms: _304  and  _306
REMARK  128  A    between atoms: _306  and  _307
REMARK  129  A    between atoms: _310  and  _312
REMARK  130  A    between atoms: _312  and  _313
REMARK  131  A    between atoms: _312  and  _315
REMARK  132  A    between atoms: _315  and  _316
REMARK  133  A    between atoms: _316  and  _317
REMARK  134  A    between atoms: _322  and  _324
REMARK  135  A    between atoms: _324  and  _325
REMARK  136  A    between atoms: _327  and  _329
REMARK  137  A    between atoms: _329  and  _330
REMARK  138  A    between atoms: _332  and  _334
REMARK  139  A    between atoms: _334  and  _335
REMARK  140  A    between atoms: _334  and  _337
REMARK  141  A    between atoms: _337  and  _338
REMARK  142  A    between atoms: _341  and  _343
REMARK  143  A    between atoms: _343  and  _344
REMARK  144  A    between atoms: _343  and  _346
REMARK  145  A    between atoms: _349  and  _351
REMARK  146  A    between atoms: _351  and  _352
REMARK  147  A    between atoms: _354  and  _356
REMARK  148  A    between atoms: _356  and  _357
REMARK  149  A    between atoms: _356  and  _359
REMARK  150  A    between atoms: _359  and  _360
REMARK  151  A    between atoms: _360  and  _361
REMARK  152  A    between atoms: _361  and  _362
REMARK  153  A    between atoms: _371  and  _373
REMARK  154  A    between atoms: _373  and  _374
REMARK  155  A    between atoms: _373  and  _376
REMARK  156  A    between atoms: _376  and  _377
REMARK  157  A    between atoms: _379  and  _381
REMARK  158  A    between atoms: _381  and  _382
REMARK  159  A    between atoms: _381  and  _384
REMARK  160  A    between atoms: _384  and  _385
REMARK  161  A    between atoms: _388  and  _390
REMARK  162  A    between atoms: _390  and  _391
REMARK  163  A    between atoms: _390  and  _393
REMARK  164  A    between atoms: _393  and  _394
REMARK  165  A    between atoms: _399  and  _400
REMARK  166  A    between atoms: _402  and  _404
REMARK  167  A    between atoms: _404  and  _405
REMARK  168  A    between atoms: _404  and  _407
REMARK  169  A    between atoms: _407  and  _408
REMARK  170  A    between atoms: _411  and  _413
REMARK  171  A    between atoms: _413  and  _414
REMARK  172  A    between atoms: _417  and  _419
REMARK  173  A    between atoms: _419  and  _420
REMARK  174  A    between atoms: _419  and  _422
REMARK  175  A    between atoms: _422  and  _423
REMARK  176  A    between atoms: _426  and  _428
REMARK  177  A    between atoms: _428  and  _429
REMARK  178  A    between atoms: _428  and  _431
REMARK  179  A    between atoms: _431  and  _432
REMARK  180  A    between atoms: _436  and  _437
REMARK  181  A    between atoms: _442  and  _444
REMARK  182  A    between atoms: _444  and  _445
REMARK  183  A    between atoms: _444  and  _447
REMARK  184  A    between atoms: _447  and  _448
REMARK  185  A    between atoms: _448  and  _449
REMARK  186  A    between atoms: _452  and  _454
REMARK  187  A    between atoms: _454  and  _455
REMARK  188  A    between atoms: _454  and  _457
REMARK  189  A    between atoms: _457  and  _458
REMARK  190  A    between atoms: _461  and  _463
REMARK  191  A    between atoms: _463  and  _464
REMARK  192  A    between atoms: _463  and  _466
REMARK  193  A    between atoms: _466  and  _467
REMARK  194  A    between atoms: _472  and  _474
REMARK  195  A    between atoms: _474  and  _475
REMARK  196  A    between atoms: _474  and  _477
REMARK  197  A    between atoms: _477  and  _478
REMARK  198  A    between atoms: _478  and  _479
REMARK  199  A    between atoms: _479  and  _480
REMARK  200  A    between atoms: _480  and  _481
REMARK  201  A    between atoms: _485  and  _487
REMARK  202  A    between atoms: _487  and  _488
REMARK  203  A    between atoms: _487  and  _490
REMARK  204  A    between atoms: _490  and  _491
REMARK                            x       y       z     vdW  Elec       q    Type
REMARK                         _______ _______ _______ _____ _____    ______ ____
ROOT
ATOM      1  CA  GLY A   1      14.711   1.997  -3.002  0.00  0.00    +0.156 C 
ENDROOT
BRANCH   1   2
ATOM      2  N   GLY A   1      15.525   1.010  -3.693  0.00  0.00    -0.238 NA
ATOM      3  H   GLY A   1      15.754   0.112  -3.222  0.00  0.00    +0.142 HD
ENDBRANCH   1   2
BRANCH   1   4
ATOM      4  C   GLY A   1      15.570   3.064  -2.355  0.00  0.00    +0.226 C 
ATOM      5  O   GLY A   1      15.479   3.300  -1.153  0.00  0.00    -0.287 OA
ENDBRANCH   1   4
TORSDOF 2
REMARK  Name = ../refined-set-2016/3g1v/3g1v_pocket.pdb
REMARK  204 active torsions:
REMARK  status: ('A' for Active; 'I' for Inactive)
REMARK    1  A    between atoms: _1  and  _3
REMARK    2  A    between atoms: _3  and  _4
REMARK    3  A    between atoms: _3  and  _6
REMARK    4  A    between atoms: _6  and  _7
REMARK    5  A    between atoms: _10  and  _12
REMARK    6  A    between atoms: _12  and  _13
REMARK    7  A    between atoms: _12  and  _15
REMARK    8  A    between atoms: _15  and  _16
REMARK    9  A    between atoms: _19  and  _21
REMARK   10  A    between atoms: _21  and  _22
REMARK   11  A    between atoms: _25  and  _27
REMARK   12  A    between atoms: _27  and  _28
REMARK   13  A    between atoms: _27  and  _30
REMARK   14  A    between atoms: _30  and  _31
REMARK   15  A    between atoms: _31  and  _32
REMARK   16  A    between atoms: _34  and  _36
REMARK   17  A    between atoms: _36  and  _37
REMARK   18  A    between atoms: _36  and  _39
REMARK   19  A    between atoms: _39  and  _40
REMARK   20  A    between atoms: _43  and  _45
REMARK   21  A    between atoms: _45  and  _46
REMARK   22  A    between atoms: _45  and  _48
REMARK   23  A    between atoms: _48  and  _49
REMARK   24  A    between atoms: _49  and  _50
REMARK   25  A    between atoms: _50  and  _51
REMARK   26  A    between atoms: _51  and  _52
REMARK   27  A    between atoms: _56  and  _58
REMARK   28  A    between atoms: _58  and  _59
REMARK   29  A    between atoms: _58  and  _61
REMARK   30  A    between atoms: _61  and  _62
REMARK   31  A    between atoms: _65  and  _67
REMARK   32  A    between atoms: _67  and  _68
REMARK   33  A    between atoms: _70  and  _72
REMARK   34  A    between atoms: _72  and  _73
REMARK   35  A    between atoms: _72  and  _75
REMARK   36  A    between atoms: _75  and  _76
REMARK   37  A    between atoms: _81  and  _82
REMARK   38  A    between atoms: _85  and  _86
REMARK   39  A    between atoms: _91  and  _93
REMARK   40  A    between atoms: _93  and  _94
REMARK   41  A    between atoms: _93  and  _96
REMARK   42  A    between atoms: _96  and  _97
REMARK   43  A    between atoms: _100  and  _102
REMARK   44  A    between atoms: _102  and  _103
REMARK   45  A    between atoms: _105  and  _107
REMARK   46  A    between atoms: _107  and  _108
REMARK   47  A    between atoms: _107  and  _110
REMARK   48  A    between atoms: _110  and  _111
REMARK   49  A    between atoms: _111  and  _112
REMARK   50  A    between atoms: _112  and  _113
REMARK   51  A    between atoms: _113  and  _114
REMARK   52  A    between atoms: _118  and  _120
REMARK   53  A    between atoms: _120  and  _121
REMARK   54  A    between atoms: _120  and  _123
REMARK   55  A    between atoms: _123  and  _124
REMARK   56  A    between atoms: _127  and  _129
REMARK   57  A    between atoms: _129  and  _130
REMARK   58  A    between atoms: _129  and  _132
REMARK   59  A    between atoms: _135  and  _137
REMARK   60  A    between atoms: _137  and  _138
REMARK   61  A    between atoms: _137  and  _140
REMARK   62  A    between atoms: _140  and  _141
REMARK   63  A    between atoms: _146  and  _148
REMARK   64  A    between atoms: _148  and  _149
REMARK   65  A    between atoms: _148  and  _151
REMARK   66  A    between atoms: _151  and  _152
REMARK   67  A    between atoms: _155  and  _157
REMARK   68  A    between atoms: _157  and  _158
REMARK   69  A    between atoms: _157  and  _160
REMARK   70  A    between atoms: _160  and  _161
REMARK   71  A    between atoms: _164  and  _166
REMARK   72  A    between atoms: _166  and  _167
REMARK   73  A    between atoms: _166  and  _169
REMARK   74  A    between atoms: _169  and  _170
REMARK   75  A    between atoms: _170  and  _171
REMARK   76  A    between atoms: _174  and  _176
REMARK   77  A    between atoms: _176  and  _177
REMARK   78  A    between atoms: _176  and  _179
REMARK   79  A    between atoms: _179  and  _180
REMARK   80  A    between atoms: _180  and  _181
REMARK   81  A    between atoms: _183  and  _185
REMARK   82  A    between atoms: _185  and  _186
REMARK   83  A    between atoms: _185  and  _188
REMARK   84  A    between atoms: _188  and  _189
REMARK   85  A    between atoms: _191  and  _193
REMARK   86  A    between atoms: _193  and  _194
REMARK   87  A    between atoms: _193  and  _196
REMARK   88  A    between atoms: _196  and  _197
REMARK   89  A    between atoms: _202  and  _204
REMARK   90  A    between atoms: _204  and  _205
REMARK   91  A    between atoms: _208  and  _210
REMARK   92  A    between atoms: _210  and  _211
REMARK   93  A    between atoms: _210  and  _213
REMARK   94  A    between atoms: _213  and  _214
REMARK   95  A    between atoms: _217  and  _219
REMARK   96  A    between atoms: _219  and  _220
REMARK   97  A    between atoms: _219  and  _222
REMARK   98  A    between atoms: _225  and  _227
REMARK   99  A    between atoms: _227  and  _228
REMARK  100  A    between atoms: _231  and  _232
REMARK  101  A    between atoms: _237  and  _239
REMARK  102  A    between atoms: _239  and  _240
REMARK  103  A    between atoms: _239  and  _242
REMARK  104  A    between atoms: _242  and  _243
REMARK  105  A    between atoms: _245  and  _247
REMARK  106  A    between atoms: _247  and  _248
REMARK  107  A    between atoms: _247  and  _250
REMARK  108  A    between atoms: _250  and  _251
REMARK  109  A    between atoms: _254  and  _256
REMARK  110  A    between atoms: _256  and  _257
REMARK  111  A    between atoms: _256  and  _259
REMARK  112  A    between atoms: _259  and  _260
REMARK  113  A    between atoms: _260  and  _261
REMARK  114  A    between atoms: _261  and  _262
REMARK  115  A    between atoms: _271  and  _273
REMARK  116  A    between atoms: _273  and  _274
REMARK  117  A    between atoms: _273  and  _276
REMARK  118  A    between atoms: _276  and  _277
REMARK  119  A    between atoms: _280  and  _281
REMARK  120  A    between atoms: _286  and  _288
REMARK  121  A    between atoms: _288  and  _289
REMARK  122  A    between atoms: _291  and  _293
REMARK  123  A    between atoms: _293  and  _294
REMARK  124  A    between atoms: _293  and  _296
REMARK  125  A    between atoms: _299  and  _301
REMARK  126  A    between atoms: _301  and  _302
REMARK  127  A    between atoms: _304  and  _306
REMARK  128  A    between atoms: _306  and  _307
REMARK  129  A    between atoms: _310  and  _312
REMARK  130  A    between atoms: _312  and  _313
REMARK  131  A    between atoms: _312  and  _315
REMARK  132  A    between atoms: _315  and  _316
REMARK  133  A    between atoms: _316  and  _317
REMARK  134  A    between atoms: _322  and  _324
REMARK  135  A    between atoms: _324  and  _325
REMARK  136  A    between atoms: _327  and  _329
REMARK  137  A    between atoms: _329  and  _330
REMARK  138  A    between atoms: _332  and  _334
REMARK  139  A    between atoms: _334  and  _335
REMARK  140  A    between atoms: _334  and  _337
REMARK  141  A    between atoms: _337  and  _338
REMARK  142  A    between atoms: _341  and  _343
REMARK  143  A    between atoms: _343  and  _344
REMARK  144  A    between atoms: _343  and  _346
REMARK  145  A    between atoms: _349  and  _351
REMARK  146  A    between atoms: _351  and  _352
REMARK  147  A    between atoms: _354  and  _356
REMARK  148  A    between atoms: _356  and  _357
REMARK  149  A    between atoms: _356  and  _359
REMARK  150  A    between atoms: _359  and  _360
REMARK  151  A    between atoms: _360  and  _361
REMARK  152  A    between atoms: _361  and  _362
REMARK  153  A    between atoms: _371  and  _373
REMARK  154  A    between atoms: _373  and  _374
REMARK  155  A    between atoms: _373  and  _376
REMARK  156  A    between atoms: _376  and  _377
REMARK  157  A    between atoms: _379  and  _381
REMARK  158  A    between atoms: _381  and  _382
REMARK  159  A    between atoms: _381  and  _384
REMARK  160  A    between atoms: _384  and  _385
REMARK  161  A    between atoms: _388  and  _390
REMARK  162  A    between atoms: _390  and  _391
REMARK  163  A    between atoms: _390  and  _393
REMARK  164  A    between atoms: _393  and  _394
REMARK  165  A    between atoms: _399  and  _400
REMARK  166  A    between atoms: _402  and  _404
REMARK  167  A    between atoms: _404  and  _405
REMARK  168  A    between atoms: _404  and  _407
REMARK  169  A    between atoms: _407  and  _408
REMARK  170  A    between atoms: _411  and  _413
REMARK  171  A    between atoms: _413  and  _414
REMARK  172  A    between atoms: _417  and  _419
REMARK  173  A    between atoms: _419  and  _420
REMARK  174  A    between atoms: _419  and  _422
REMARK  175  A    between atoms: _422  and  _423
REMARK  176  A    between atoms: _426  and  _428
REMARK  177  A    between atoms: _428  and  _429
REMARK  178  A    between atoms: _428  and  _431
REMARK  179  A    between atoms: _431  and  _432
REMARK  180  A    between atoms: _436  and  _437
REMARK  181  A    between atoms: _442  and  _444
REMARK  182  A    between atoms: _444  and  _445
REMARK  183  A    between atoms: _444  and  _447
REMARK  184  A    between atoms: _447  and  _448
REMARK  185  A    between atoms: _448  and  _449
REMARK  186  A    between atoms: _452  and  _454
REMARK  187  A    between atoms: _454  and  _455
REMARK  188  A    between atoms: _454  and  _457
REMARK  189  A    between atoms: _457  and  _458
REMARK  190  A    between atoms: _461  and  _463
REMARK  191  A    between atoms: _463  and  _464
REMARK  192  A    between atoms: _463  and  _466
REMARK  193  A    between atoms: _466  and  _467
REMARK  194  A    between atoms: _472  and  _474
REMARK  195  A    between atoms: _474  and  _475
REMARK  196  A    between atoms: _474  and  _477
REMARK  197  A    between atoms: _477  and  _478
REMARK  198  A    between atoms: _478  and  _479
REMARK  199  A    between atoms: _479  and  _480
REMARK  200  A    between atoms: _480  and  _481
REMARK  201  A    between atoms: _485  and  _487
REMARK  202  A    between atoms: _487  and  _488
REMARK  203  A    between atoms: _487  and  _490
REMARK  204  A    between atoms: _490  and  _491
REMARK                            x       y       z     vdW  Elec       q    Type
REMARK                         _______ _______ _______ _____ _____    ______ ____
ROOT
ATOM      1  CG  LYS A   1      13.052   6.679  -1.600  0.00  0.00    -0.000 C 
ENDROOT
BRANCH   1   2
ATOM      2  CB  LYS A   1      14.138   7.740  -1.703  0.00  0.00    +0.025 C 
BRANCH   2   3
ATOM      3  CA  LYS A   1      14.890   7.661  -3.029  0.00  0.00    +0.133 C 
BRANCH   3   4
ATOM      4  N   LYS A   1      15.571   6.370  -3.118  0.00  0.00    -0.239 NA
ATOM      5  H   LYS A   1      15.152   5.620  -3.704  0.00  0.00    +0.142 HD
ENDBRANCH   3   4
BRANCH   3   6
ATOM      6  C   LYS A   1      15.868   8.822  -3.178  0.00  0.00    +0.224 C 
ATOM      7  O   LYS A   1      15.962   9.707  -2.324  0.00  0.00    -0.287 OA
ENDBRANCH   3   6
ENDBRANCH   2   3
ENDBRANCH   1   2
BRANCH   1   8
ATOM      8  CD  LYS A   1      12.320   6.727  -0.277  0.00  0.00    -0.024 C 
BRANCH   8   9
ATOM      9  CE  LYS A   1      13.212   6.282   0.864  0.00  0.00    -0.086 C 
BRANCH   9  10
ATOM     10  NZ  LYS A   1      13.709   4.891   0.653  0.00  0.00    +0.380 N 
ATOM     11  HZ1 LYS A   1      14.317   4.616   1.451  0.00  0.00    -0.089 HD
ATOM     12  HZ2 LYS A   1      12.900   4.241   0.592  0.00  0.00    -0.089 HD
ATOM     13  HZ3 LYS A   1      14.256   4.850  -0.231  0.00  0.00    -0.089 HD
ENDBRANCH   9  10
ENDBRANCH   8   9
ENDBRANCH   1   8
TORSDOF 7
REMARK  Name = ../refined-set-2016/3g1v/3g1v_pocket.pdb
REMARK  204 active torsions:
REMARK  status: ('A' for Active; 'I' for Inactive)
REMARK    1  A    between atoms: _1  and  _3
REMARK    2  A    between atoms: _3  and  _4
REMARK    3  A    between atoms: _3  and  _6
REMARK    4  A    between atoms: _6  and  _7
REMARK    5  A    between atoms: _10  and  _12
REMARK    6  A    between atoms: _12  and  _13
REMARK    7  A    between atoms: _12  and  _15
REMARK    8  A    between atoms: _15  and  _16
REMARK    9  A    between atoms: _19  and  _21
REMARK   10  A    between atoms: _21  and  _22
REMARK   11  A    between atoms: _25  and  _27
REMARK   12  A    between atoms: _27  and  _28
REMARK   13  A    between atoms: _27  and  _30
REMARK   14  A    between atoms: _30  and  _31
REMARK   15  A    between atoms: _31  and  _32
REMARK   16  A    between atoms: _34  and  _36
REMARK   17  A    between atoms: _36  and  _37
REMARK   18  A    between atoms: _36  and  _39
REMARK   19  A    between atoms: _39  and  _40
REMARK   20  A    between atoms: _43  and  _45
REMARK   21  A    between atoms: _45  and  _46
REMARK   22  A    between atoms: _45  and  _48
REMARK   23  A    between atoms: _48  and  _49
REMARK   24  A    between atoms: _49  and  _50
REMARK   25  A    between atoms: _50  and  _51
REMARK   26  A    between atoms: _51  and  _52
REMARK   27  A    between atoms: _56  and  _58
REMARK   28  A    between atoms: _58  and  _59
REMARK   29  A    between atoms: _58  and  _61
REMARK   30  A    between atoms: _61  and  _62
REMARK   31  A    between atoms: _65  and  _67
REMARK   32  A    between atoms: _67  and  _68
REMARK   33  A    between atoms: _70  and  _72
REMARK   34  A    between atoms: _72  and  _73
REMARK   35  A    between atoms: _72  and  _75
REMARK   36  A    between atoms: _75  and  _76
REMARK   37  A    between atoms: _81  and  _82
REMARK   38  A    between atoms: _85  and  _86
REMARK   39  A    between atoms: _91  and  _93
REMARK   40  A    between atoms: _93  and  _94
REMARK   41  A    between atoms: _93  and  _96
REMARK   42  A    between atoms: _96  and  _97
REMARK   43  A    between atoms: _100  and  _102
REMARK   44  A    between atoms: _102  and  _103
REMARK   45  A    between atoms: _105  and  _107
REMARK   46  A    between atoms: _107  and  _108
REMARK   47  A    between atoms: _107  and  _110
REMARK   48  A    between atoms: _110  and  _111
REMARK   49  A    between atoms: _111  and  _112
REMARK   50  A    between atoms: _112  and  _113
REMARK   51  A    between atoms: _113  and  _114
REMARK   52  A    between atoms: _118  and  _120
REMARK   53  A    between atoms: _120  and  _121
REMARK   54  A    between atoms: _120  and  _123
REMARK   55  A    between atoms: _123  and  _124
REMARK   56  A    between atoms: _127  and  _129
REMARK   57  A    between atoms: _129  and  _130
REMARK   58  A    between atoms: _129  and  _132
REMARK   59  A    between atoms: _135  and  _137
REMARK   60  A    between atoms: _137  and  _138
REMARK   61  A    between atoms: _137  and  _140
REMARK   62  A    between atoms: _140  and  _141
REMARK   63  A    between atoms: _146  and  _148
REMARK   64  A    between atoms: _148  and  _149
REMARK   65  A    between atoms: _148  and  _151
REMARK   66  A    between atoms: _151  and  _152
REMARK   67  A    between atoms: _155  and  _157
REMARK   68  A    between atoms: _157  and  _158
REMARK   69  A    between atoms: _157  and  _160
REMARK   70  A    between atoms: _160  and  _161
REMARK   71  A    between atoms: _164  and  _166
REMARK   72  A    between atoms: _166  and  _167
REMARK   73  A    between atoms: _166  and  _169
REMARK   74  A    between atoms: _169  and  _170
REMARK   75  A    between atoms: _170  and  _171
REMARK   76  A    between atoms: _174  and  _176
REMARK   77  A    between atoms: _176  and  _177
REMARK   78  A    between atoms: _176  and  _179
REMARK   79  A    between atoms: _179  and  _180
REMARK   80  A    between atoms: _180  and  _181
REMARK   81  A    between atoms: _183  and  _185
REMARK   82  A    between atoms: _185  and  _186
REMARK   83  A    between atoms: _185  and  _188
REMARK   84  A    between atoms: _188  and  _189
REMARK   85  A    between atoms: _191  and  _193
REMARK   86  A    between atoms: _193  and  _194
REMARK   87  A    between atoms: _193  and  _196
REMARK   88  A    between atoms: _196  and  _197
REMARK   89  A    between atoms: _202  and  _204
REMARK   90  A    between atoms: _204  and  _205
REMARK   91  A    between atoms: _208  and  _210
REMARK   92  A    between atoms: _210  and  _211
REMARK   93  A    between atoms: _210  and  _213
REMARK   94  A    between atoms: _213  and  _214
REMARK   95  A    between atoms: _217  and  _219
REMARK   96  A    between atoms: _219  and  _220
REMARK   97  A    between atoms: _219  and  _222
REMARK   98  A    between atoms: _225  and  _227
REMARK   99  A    between atoms: _227  and  _228
REMARK  100  A    between atoms: _231  and  _232
REMARK  101  A    between atoms: _237  and  _239
REMARK  102  A    between atoms: _239  and  _240
REMARK  103  A    between atoms: _239  and  _242
REMARK  104  A    between atoms: _242  and  _243
REMARK  105  A    between atoms: _245  and  _247
REMARK  106  A    between atoms: _247  and  _248
REMARK  107  A    between atoms: _247  and  _250
REMARK  108  A    between atoms: _250  and  _251
REMARK  109  A    between atoms: _254  and  _256
REMARK  110  A    between atoms: _256  and  _257
REMARK  111  A    between atoms: _256  and  _259
REMARK  112  A    between atoms: _259  and  _260
REMARK  113  A    between atoms: _260  and  _261
REMARK  114  A    between atoms: _261  and  _262
REMARK  115  A    between atoms: _271  and  _273
REMARK  116  A    between atoms: _273  and  _274
REMARK  117  A    between atoms: _273  and  _276
REMARK  118  A    between atoms: _276  and  _277
REMARK  119  A    between atoms: _280  and  _281
REMARK  120  A    between atoms: _286  and  _288
REMARK  121  A    between atoms: _288  and  _289
REMARK  122  A    between atoms: _291  and  _293
REMARK  123  A    between atoms: _293  and  _294
REMARK  124  A    between atoms: _293  and  _296
REMARK  125  A    between atoms: _299  and  _301
REMARK  126  A    between atoms: _301  and  _302
REMARK  127  A    between atoms: _304  and  _306
REMARK  128  A    between atoms: _306  and  _307
REMARK  129  A    between atoms: _310  and  _312
REMARK  130  A    between atoms: _312  and  _313
REMARK  131  A    between atoms: _312  and  _315
REMARK  132  A    between atoms: _315  and  _316
REMARK  133  A    between atoms: _316  and  _317
REMARK  134  A    between atoms: _322  and  _324
REMARK  135  A    between atoms: _324  and  _325
REMARK  136  A    between atoms: _327  and  _329
REMARK  137  A    between atoms: _329  and  _330
REMARK  138  A    between atoms: _332  and  _334
REMARK  139  A    between atoms: _334  and  _335
REMARK  140  A    between atoms: _334  and  _337
REMARK  141  A    between atoms: _337  and  _338
REMARK  142  A    between atoms: _341  and  _343
REMARK  143  A    between atoms: _343  and  _344
REMARK  144  A    between atoms: _343  and  _346
REMARK  145  A    between atoms: _349  and  _351
REMARK  146  A    between atoms: _351  and  _352
REMARK  147  A    between atoms: _354  and  _356
REMARK  148  A    between atoms: _356  and  _357
REMARK  149  A    between atoms: _356  and  _359
REMARK  150  A    between atoms: _359  and  _360
REMARK  151  A    between atoms: _360  and  _361
REMARK  152  A    between atoms: _361  and  _362
REMARK  153  A    between atoms: _371  and  _373
REMARK  154  A    between atoms: _373  and  _374
REMARK  155  A    between atoms: _373  and  _376
REMARK  156  A    between atoms: _376  and  _377
REMARK  157  A    between atoms: _379  and  _381
REMARK  158  A    between atoms: _381  and  _382
REMARK  159  A    between atoms: _381  and  _384
REMARK  160  A    between atoms: _384  and  _385
REMARK  161  A    between atoms: _388  and  _390
REMARK  162  A    between atoms: _390  and  _391
REMARK  163  A    between atoms: _390  and  _393
REMARK  164  A    between atoms: _393  and  _394
REMARK  165  A    between atoms: _399  and  _400
REMARK  166  A    between atoms: _402  and  _404
REMARK  167  A    between atoms: _404  and  _405
REMARK  168  A    between atoms: _404  and  _407
REMARK  169  A    between atoms: _407  and  _408
REMARK  170  A    between atoms: _411  and  _413
REMARK  171  A    between atoms: _413  and  _414
REMARK  172  A    between atoms: _417  and  _419
REMARK  173  A    between atoms: _419  and  _420
REMARK  174  A    between atoms: _419  and  _422
REMARK  175  A    between atoms: _422  and  _423
REMARK  176  A    between atoms: _426  and  _428
REMARK  177  A    between atoms: _428  and  _429
REMARK  178  A    between atoms: _428  and  _431
REMARK  179  A    between atoms: _431  and  _432
REMARK  180  A    between atoms: _436  and  _437
REMARK  181  A    between atoms: _442  and  _444
REMARK  182  A    between atoms: _444  and  _445
REMARK  183  A    between atoms: _444  and  _447
REMARK  184  A    between atoms: _447  and  _448
REMARK  185  A    between atoms: _448  and  _449
REMARK  186  A    between atoms: _452  and  _454
REMARK  187  A    between atoms: _454  and  _455
REMARK  188  A    between atoms: _454  and  _457
REMARK  189  A    between atoms: _457  and  _458
REMARK  190  A    between atoms: _461  and  _463
REMARK  191  A    between atoms: _463  and  _464
REMARK  192  A    between atoms: _463  and  _466
REMARK  193  A    between atoms: _466  and  _467
REMARK  194  A    between atoms: _472  and  _474
REMARK  195  A    between atoms: _474  and  _475
REMARK  196  A    between atoms: _474  and  _477
REMARK  197  A    between atoms: _477  and  _478
REMARK  198  A    between atoms: _478  and  _479
REMARK  199  A    between atoms: _479  and  _480
REMARK  200  A    between atoms: _480  and  _481
REMARK  201  A    between atoms: _485  and  _487
REMARK  202  A    between atoms: _487  and  _488
REMARK  203  A    between atoms: _487  and  _490
REMARK  204  A    between atoms: _490  and  _491
REMARK                            x       y       z     vdW  Elec       q    Type
REMARK                         _______ _______ _______ _____ _____    ______ ____
ROOT
ATOM      1  CA  VAL A   2      13.734   8.936  -6.875  0.00  0.00    +0.148 C 
ENDROOT
BRANCH   1   4
ATOM      2  C   ILE A   1      13.898   6.531  -6.484  0.00  0.00    +0.238 C 
ATOM      3  O   ILE A   1      14.969   6.626  -5.874  0.00  0.00    -0.274 OA
ATOM      4  N   VAL A   2      13.237   7.573  -6.972  0.00  0.00    -0.297 N 
ATOM      5  H   VAL A   2      12.325   7.408  -7.444  0.00  0.00    +0.150 HD
BRANCH   2   6
ATOM      6  CA  ILE A   1      13.250   5.177  -6.734  0.00  0.00    +0.145 C 
BRANCH   6   7
ATOM      7  N   ILE A   1      14.291   4.280  -7.204  0.00  0.00    -0.238 NA
ATOM      8  H   ILE A   1      14.861   3.754  -6.511  0.00  0.00    +0.142 HD
ENDBRANCH   6   7
BRANCH   6   9
ATOM      9  CB  ILE A   1      12.576   4.635  -5.456  0.00  0.00    +0.025 C 
ATOM     10  CG2 ILE A   1      11.544   5.632  -4.941  0.00  0.00    +0.002 C 
BRANCH   9  11
ATOM     11  CG1 ILE A   1      11.924   3.284  -5.769  0.00  0.00    +0.002 C 
ATOM     12  CD1 ILE A   1      11.177   2.664  -4.610  0.00  0.00    +0.000 C 
ENDBRANCH   9  11
ENDBRANCH   6   9
ENDBRANCH   2   6
ENDBRANCH   1   4
BRANCH   1  13
ATOM     13  C   VAL A   2      12.727   9.856  -6.200  0.00  0.00    +0.241 C 
ATOM     14  N   HIS A   3      13.192  10.677  -5.265  0.00  0.00    -0.298 N 
ATOM     15  H   HIS A   3      14.198  10.639  -5.006  0.00  0.00    +0.150 HD
ATOM     16  O   VAL A   2      11.543   9.816  -6.517  0.00  0.00    -0.273 OA
BRANCH  14  17
ATOM     17  CA  HIS A   3      12.314  11.631  -4.596  0.00  0.00    +0.143 C 
BRANCH  17  18
ATOM     18  C   HIS A   3      11.975  12.732  -5.594  0.00  0.00    +0.227 C 
ATOM     19  O   HIS A   3      12.852  13.209  -6.315  0.00  0.00    -0.286 OA
ENDBRANCH  17  18
BRANCH  17  20
ATOM     20  CB  HIS A   3      13.025  12.280  -3.407  0.00  0.00    +0.075 C 
BRANCH  20  21
ATOM     21  CG  HIS A   3      12.587  11.767  -2.072  0.00  0.00    +0.082 A 
ATOM     22  CD2 HIS A   3      13.291  11.195  -1.066  0.00  0.00    +0.115 A 
ATOM     23  NE2 HIS A   3      12.412  10.963  -0.038  0.00  0.00    -0.221 NA
ATOM     24  CE1 HIS A   3      11.210  11.376  -0.399  0.00  0.00    +0.199 A 
ATOM     25  ND1 HIS A   3      11.287  11.865  -1.625  0.00  0.00    -0.227 NA
ENDBRANCH  20  21
ENDBRANCH  17  20
ENDBRANCH  14  17
ENDBRANCH   1  13
BRANCH   1  26
ATOM     26  CB  VAL A   2      14.017   9.492  -8.297  0.00  0.00    +0.027 C 
ATOM     27  CG2 VAL A   2      14.530  10.921  -8.221  0.00  0.00    +0.002 C 
ATOM     28  CG1 VAL A   2      15.007   8.589  -9.026  0.00  0.00    +0.002 C 
ENDBRANCH   1  26
TORSDOF 11
REMARK  Name = ../refined-set-2016/3g1v/3g1v_pocket.pdb
REMARK  204 active torsions:
REMARK  status: ('A' for Active; 'I' for Inactive)
REMARK    1  A    between atoms: _1  and  _3
REMARK    2  A    between atoms: _3  and  _4
REMARK    3  A    between atoms: _3  and  _6
REMARK    4  A    between atoms: _6  and  _7
REMARK    5  A    between atoms: _10  and  _12
REMARK    6  A    between atoms: _12  and  _13
REMARK    7  A    between atoms: _12  and  _15
REMARK    8  A    between atoms: _15  and  _16
REMARK    9  A    between atoms: _19  and  _21
REMARK   10  A    between atoms: _21  and  _22
REMARK   11  A    between atoms: _25  and  _27
REMARK   12  A    between atoms: _27  and  _28
REMARK   13  A    between atoms: _27  and  _30
REMARK   14  A    between atoms: _30  and  _31
REMARK   15  A    between atoms: _31  and  _32
REMARK   16  A    between atoms: _34  and  _36
REMARK   17  A    between atoms: _36  and  _37
REMARK   18  A    between atoms: _36  and  _39
REMARK   19  A    between atoms: _39  and  _40
REMARK   20  A    between atoms: _43  and  _45
REMARK   21  A    between atoms: _45  and  _46
REMARK   22  A    between atoms: _45  and  _48
REMARK   23  A    between atoms: _48  and  _49
REMARK   24  A    between atoms: _49  and  _50
REMARK   25  A    between atoms: _50  and  _51
REMARK   26  A    between atoms: _51  and  _52
REMARK   27  A    between atoms: _56  and  _58
REMARK   28  A    between atoms: _58  and  _59
REMARK   29  A    between atoms: _58  and  _61
REMARK   30  A    between atoms: _61  and  _62
REMARK   31  A    between atoms: _65  and  _67
REMARK   32  A    between atoms: _67  and  _68
REMARK   33  A    between atoms: _70  and  _72
REMARK   34  A    between atoms: _72  and  _73
REMARK   35  A    between atoms: _72  and  _75
REMARK   36  A    between atoms: _75  and  _76
REMARK   37  A    between atoms: _81  and  _82
REMARK   38  A    between atoms: _85  and  _86
REMARK   39  A    between atoms: _91  and  _93
REMARK   40  A    between atoms: _93  and  _94
REMARK   41  A    between atoms: _93  and  _96
REMARK   42  A    between atoms: _96  and  _97
REMARK   43  A    between atoms: _100  and  _102
REMARK   44  A    between atoms: _102  and  _103
REMARK   45  A    between atoms: _105  and  _107
REMARK   46  A    between atoms: _107  and  _108
REMARK   47  A    between atoms: _107  and  _110
REMARK   48  A    between atoms: _110  and  _111
REMARK   49  A    between atoms: _111  and  _112
REMARK   50  A    between atoms: _112  and  _113
REMARK   51  A    between atoms: _113  and  _114
REMARK   52  A    between atoms: _118  and  _120
REMARK   53  A    between atoms: _120  and  _121
REMARK   54  A    between atoms: _120  and  _123
REMARK   55  A    between atoms: _123  and  _124
REMARK   56  A    between atoms: _127  and  _129
REMARK   57  A    between atoms: _129  and  _130
REMARK   58  A    between atoms: _129  and  _132
REMARK   59  A    between atoms: _135  and  _137
REMARK   60  A    between atoms: _137  and  _138
REMARK   61  A    between atoms: _137  and  _140
REMARK   62  A    between atoms: _140  and  _141
REMARK   63  A    between atoms: _146  and  _148
REMARK   64  A    between atoms: _148  and  _149
REMARK   65  A    between atoms: _148  and  _151
REMARK   66  A    between atoms: _151  and  _152
REMARK   67  A    between atoms: _155  and  _157
REMARK   68  A    between atoms: _157  and  _158
REMARK   69  A    between atoms: _157  and  _160
REMARK   70  A    between atoms: _160  and  _161
REMARK   71  A    between atoms: _164  and  _166
REMARK   72  A    between atoms: _166  and  _167
REMARK   73  A    between atoms: _166  and  _169
REMARK   74  A    between atoms: _169  and  _170
REMARK   75  A    between atoms: _170  and  _171
REMARK   76  A    between atoms: _174  and  _176
REMARK   77  A    between atoms: _176  and  _177
REMARK   78  A    between atoms: _176  and  _179
REMARK   79  A    between atoms: _179  and  _180
REMARK   80  A    between atoms: _180  and  _181
REMARK   81  A    between atoms: _183  and  _185
REMARK   82  A    between atoms: _185  and  _186
REMARK   83  A    between atoms: _185  and  _188
REMARK   84  A    between atoms: _188  and  _189
REMARK   85  A    between atoms: _191  and  _193
REMARK   86  A    between atoms: _193  and  _194
REMARK   87  A    between atoms: _193  and  _196
REMARK   88  A    between atoms: _196  and  _197
REMARK   89  A    between atoms: _202  and  _204
REMARK   90  A    between atoms: _204  and  _205
REMARK   91  A    between atoms: _208  and  _210
REMARK   92  A    between atoms: _210  and  _211
REMARK   93  A    between atoms: _210  and  _213
REMARK   94  A    between atoms: _213  and  _214
REMARK   95  A    between atoms: _217  and  _219
REMARK   96  A    between atoms: _219  and  _220
REMARK   97  A    between atoms: _219  and  _222
REMARK   98  A    between atoms: _225  and  _227
REMARK   99  A    between atoms: _227  and  _228
REMARK  100  A    between atoms: _231  and  _232
REMARK  101  A    between atoms: _237  and  _239
REMARK  102  A    between atoms: _239  and  _240
REMARK  103  A    between atoms: _239  and  _242
REMARK  104  A    between atoms: _242  and  _243
REMARK  105  A    between atoms: _245  and  _247
REMARK  106  A    between atoms: _247  and  _248
REMARK  107  A    between atoms: _247  and  _250
REMARK  108  A    between atoms: _250  and  _251
REMARK  109  A    between atoms: _254  and  _256
REMARK  110  A    between atoms: _256  and  _257
REMARK  111  A    between atoms: _256  and  _259
REMARK  112  A    between atoms: _259  and  _260
REMARK  113  A    between atoms: _260  and  _261
REMARK  114  A    between atoms: _261  and  _262
REMARK  115  A    between atoms: _271  and  _273
REMARK  116  A    between atoms: _273  and  _274
REMARK  117  A    between atoms: _273  and  _276
REMARK  118  A    between atoms: _276  and  _277
REMARK  119  A    between atoms: _280  and  _281
REMARK  120  A    between atoms: _286  and  _288
REMARK  121  A    between atoms: _288  and  _289
REMARK  122  A    between atoms: _291  and  _293
REMARK  123  A    between atoms: _293  and  _294
REMARK  124  A    between atoms: _293  and  _296
REMARK  125  A    between atoms: _299  and  _301
REMARK  126  A    between atoms: _301  and  _302
REMARK  127  A    between atoms: _304  and  _306
REMARK  128  A    between atoms: _306  and  _307
REMARK  129  A    between atoms: _310  and  _312
REMARK  130  A    between atoms: _312  and  _313
REMARK  131  A    between atoms: _312  and  _315
REMARK  132  A    between atoms: _315  and  _316
REMARK  133  A    between atoms: _316  and  _317
REMARK  134  A    between atoms: _322  and  _324
REMARK  135  A    between atoms: _324  and  _325
REMARK  136  A    between atoms: _327  and  _329
REMARK  137  A    between atoms: _329  and  _330
REMARK  138  A    between atoms: _332  and  _334
REMARK  139  A    between atoms: _334  and  _335
REMARK  140  A    between atoms: _334  and  _337
REMARK  141  A    between atoms: _337  and  _338
REMARK  142  A    between atoms: _341  and  _343
REMARK  143  A    between atoms: _343  and  _344
REMARK  144  A    between atoms: _343  and  _346
REMARK  145  A    between atoms: _349  and  _351
REMARK  146  A    between atoms: _351  and  _352
REMARK  147  A    between atoms: _354  and  _356
REMARK  148  A    between atoms: _356  and  _357
REMARK  149  A    between atoms: _356  and  _359
REMARK  150  A    between atoms: _359  and  _360
REMARK  151  A    between atoms: _360  and  _361
REMARK  152  A    between atoms: _361  and  _362
REMARK  153  A    between atoms: _371  and  _373
REMARK  154  A    between atoms: _373  and  _374
REMARK  155  A    between atoms: _373  and  _376
REMARK  156  A    between atoms: _376  and  _377
REMARK  157  A    between atoms: _379  and  _381
REMARK  158  A    between atoms: _381  and  _382
REMARK  159  A    between atoms: _381  and  _384
REMARK  160  A    between atoms: _384  and  _385
REMARK  161  A    between atoms: _388  and  _390
REMARK  162  A    between atoms: _390  and  _391
REMARK  163  A    between atoms: _390  and  _393
REMARK  164  A    between atoms: _393  and  _394
REMARK  165  A    between atoms: _399  and  _400
REMARK  166  A    between atoms: _402  and  _404
REMARK  167  A    between atoms: _404  and  _405
REMARK  168  A    between atoms: _404  and  _407
REMARK  169  A    between atoms: _407  and  _408
REMARK  170  A    between atoms: _411  and  _413
REMARK  171  A    between atoms: _413  and  _414
REMARK  172  A    between atoms: _417  and  _419
REMARK  173  A    between atoms: _419  and  _420
REMARK  174  A    between atoms: _419  and  _422
REMARK  175  A    between atoms: _422  and  _423
REMARK  176  A    between atoms: _426  and  _428
REMARK  177  A    between atoms: _428  and  _429
REMARK  178  A    between atoms: _428  and  _431
REMARK  179  A    between atoms: _431  and  _432
REMARK  180  A    between atoms: _436  and  _437
REMARK  181  A    between atoms: _442  and  _444
REMARK  182  A    between atoms: _444  and  _445
REMARK  183  A    between atoms: _444  and  _447
REMARK  184  A    between atoms: _447  and  _448
REMARK  185  A    between atoms: _448  and  _449
REMARK  186  A    between atoms: _452  and  _454
REMARK  187  A    between atoms: _454  and  _455
REMARK  188  A    between atoms: _454  and  _457
REMARK  189  A    between atoms: _457  and  _458
REMARK  190  A    between atoms: _461  and  _463
REMARK  191  A    between atoms: _463  and  _464
REMARK  192  A    between atoms: _463  and  _466
REMARK  193  A    between atoms: _466  and  _467
REMARK  194  A    between atoms: _472  and  _474
REMARK  195  A    between atoms: _474  and  _475
REMARK  196  A    between atoms: _474  and  _477
REMARK  197  A    between atoms: _477  and  _478
REMARK  198  A    between atoms: _478  and  _479
REMARK  199  A    between atoms: _479  and  _480
REMARK  200  A    between atoms: _480  and  _481
REMARK  201  A    between atoms: _485  and  _487
REMARK  202  A    between atoms: _487  and  _488
REMARK  203  A    between atoms: _487  and  _490
REMARK  204  A    between atoms: _490  and  _491
REMARK                            x       y       z     vdW  Elec       q    Type
REMARK                         _______ _______ _______ _____ _____    ______ ____
ROOT
ATOM      1  C   GLU A   3       4.412  10.064  -0.489  0.00  0.00    +0.241 C 
ATOM      2  N   MET A   4       4.911  10.319   0.714  0.00  0.00    -0.297 N 
ATOM      3  H   MET A   4       4.983  11.305   1.037  0.00  0.00    +0.150 HD
ATOM      4  O   GLU A   3       4.285   8.927  -0.943  0.00  0.00    -0.273 OA
ENDROOT
BRANCH   2   5
ATOM      5  CA  MET A   4       5.359   9.248   1.589  0.00  0.00    +0.149 C 
BRANCH   5   6
ATOM      6  C   MET A   4       4.273   8.753   2.528  0.00  0.00    +0.241 C 
ATOM      7  N   SER A   5       4.497   7.568   3.087  0.00  0.00    -0.295 N 
ATOM      8  H   SER A   5       5.403   7.092   2.902  0.00  0.00    +0.150 HD
ATOM      9  O   MET A   4       3.269   9.427   2.752  0.00  0.00    -0.273 OA
BRANCH   7  10
ATOM     10  CA  SER A   5       3.523   6.909   3.950  0.00  0.00    +0.178 C 
BRANCH  10  11
ATOM     11  C   SER A   5       3.520   7.205   5.445  0.00  0.00    +0.243 C 
ATOM     12  O   SER A   5       2.527   6.932   6.117  0.00  0.00    -0.273 OA
ATOM     13  N   HIS A   6       4.610   7.748   5.975  0.00  0.00    -0.298 N 
ATOM     14  H   HIS A   6       5.417   7.985   5.363  0.00  0.00    +0.150 HD
BRANCH  13  15
ATOM     15  CA  HIS A   6       4.688   8.016   7.411  0.00  0.00    +0.143 C 
BRANCH  15  16
ATOM     16  C   HIS A   6       3.975   9.303   7.819  0.00  0.00    +0.227 C 
ATOM     17  O   HIS A   6       3.723  10.174   6.987  0.00  0.00    -0.286 OA
ENDBRANCH  15  16
BRANCH  15  18
ATOM     18  CB  HIS A   6       6.152   8.068   7.846  0.00  0.00    +0.075 C 
BRANCH  18  19
ATOM     19  CG  HIS A   6       6.915   9.192   7.227  0.00  0.00    +0.082 A 
ATOM     20  CD2 HIS A   6       7.553  10.247   7.785  0.00  0.00    +0.115 A 
ATOM     21  NE2 HIS A   6       8.060  11.003   6.757  0.00  0.00    -0.221 NA
ATOM     22  CE1 HIS A   6       7.745  10.431   5.607  0.00  0.00    +0.199 A 
ATOM     23  ND1 HIS A   6       7.054   9.334   5.863  0.00  0.00    -0.227 NA
ENDBRANCH  18  19
ENDBRANCH  15  18
ENDBRANCH  13  15
ENDBRANCH  10  11
BRANCH  10  24
ATOM     24  CB  SER A   5       3.651   5.397   3.770  0.00  0.00    +0.166 C 
BRANCH  24  25
ATOM     25  OG  SER A   5       4.929   4.964   4.201  0.00  0.00    -0.380 OA
ATOM     26  H   SER A   5       5.047   5.190   5.158  0.00  0.00    +0.211 HD
ENDBRANCH  24  25
ENDBRANCH  10  24
ENDBRANCH   7  10
ENDBRANCH   5   6
BRANCH   5  27
ATOM     27  CB  MET A   4       6.600   9.689   2.358  0.00  0.00    +0.041 C 
BRANCH  27  28
ATOM     28  CG  MET A   4       7.812   9.810   1.453  0.00  0.00    +0.060 C 
BRANCH  28  29
ATOM     29  SD  MET A   4       9.297  10.291   2.323  0.00  0.00    -0.139 S 
ATOM     30  CE  MET A   4       9.742   8.741   3.134  0.00  0.00    +0.069 C 
ENDBRANCH  28  29
ENDBRANCH  27  28
ENDBRANCH   5  27
ENDBRANCH   2   5
BRANCH   1  31
ATOM     31  CA  GLU A   3       3.992  11.269  -1.303  0.00  0.00    +0.149 C 
BRANCH  31  33
ATOM     32  C   THR A   2       4.874  11.937  -3.475  0.00  0.00    +0.243 C 
ATOM     33  N   GLU A   3       4.379  10.993  -2.684  0.00  0.00    -0.297 N 
ATOM     34  H   GLU A   3       4.263  10.030  -3.058  0.00  0.00    +0.150 HD
ATOM     35  O   THR A   2       4.960  13.117  -3.130  0.00  0.00    -0.273 OA
BRANCH  32  36
ATOM     36  CA  THR A   2       5.278  11.513  -4.888  0.00  0.00    +0.176 C 
BRANCH  36  38
ATOM     37  C   LEU A   1       7.436  10.352  -5.079  0.00  0.00    +0.238 C 
ATOM     38  N   THR A   2       6.108  10.310  -4.987  0.00  0.00    -0.295 N 
ATOM     39  H   THR A   2       5.639   9.382  -4.985  0.00  0.00    +0.150 HD
ATOM     40  O   LEU A   1       8.084  11.402  -5.053  0.00  0.00    -0.274 OA
BRANCH  37  41
ATOM     41  CA  LEU A   1       8.137   8.999  -5.226  0.00  0.00    +0.145 C 
BRANCH  41  42
ATOM     42  N   LEU A   1       8.808   8.995  -6.523  0.00  0.00    -0.238 NA
ATOM     43  H   LEU A   1       9.813   9.258  -6.569  0.00  0.00    +0.142 HD
ENDBRANCH  41  42
BRANCH  41  44
ATOM     44  CB  LEU A   1       9.164   8.789  -4.105  0.00  0.00    +0.026 C 
BRANCH  44  45
ATOM     45  CG  LEU A   1       8.702   8.910  -2.650  0.00  0.00    +0.002 C 
ATOM     46  CD2 LEU A   1       9.876   8.605  -1.730  0.00  0.00    +0.000 C 
ATOM     47  CD1 LEU A   1       7.547   7.963  -2.369  0.00  0.00    +0.000 C 
ENDBRANCH  44  45
ENDBRANCH  41  44
ENDBRANCH  37  41
ENDBRANCH  36  38
BRANCH  36  48
ATOM     48  CB  THR A   2       3.994  11.354  -5.730  0.00  0.00    +0.137 C 
ATOM     49  CG2 THR A   2       4.350  11.098  -7.193  0.00  0.00    +0.034 C 
BRANCH  48  50
ATOM     50  OG1 THR A   2       3.220  10.258  -5.227  0.00  0.00    -0.382 OA
ATOM     51  HG1 THR A   2       3.754   9.426  -5.281  0.00  0.00    +0.210 HD
ENDBRANCH  48  50
ENDBRANCH  36  48
ENDBRANCH  32  36
ENDBRANCH  31  33
BRANCH  31  52
ATOM     52  CB  GLU A   3       2.477  11.479  -1.145  0.00  0.00    +0.041 C 
BRANCH  52  53
ATOM     53  CG  GLU A   3       2.098  11.922   0.283  0.00  0.00    +0.116 C 
BRANCH  53  54
ATOM     54  CD  GLU A   3       0.615  12.198   0.486  0.00  0.00    +0.365 C 
ATOM     55  OE2 GLU A   3       0.076  11.826   1.552  0.00  0.00    -0.246 OA
ATOM     56  OE1 GLU A   3      -0.008  12.807  -0.404  0.00  0.00    -0.246 OA
ENDBRANCH  53  54
ENDBRANCH  52  53
ENDBRANCH  31  52
ENDBRANCH   1  31
TORSDOF 26
REMARK  Name = ../refined-set-2016/3g1v/3g1v_pocket.pdb
REMARK  204 active torsions:
REMARK  status: ('A' for Active; 'I' for Inactive)
REMARK    1  A    between atoms: _1  and  _3
REMARK    2  A    between atoms: _3  and  _4
REMARK    3  A    between atoms: _3  and  _6
REMARK    4  A    between atoms: _6  and  _7
REMARK    5  A    between atoms: _10  and  _12
REMARK    6  A    between atoms: _12  and  _13
REMARK    7  A    between atoms: _12  and  _15
REMARK    8  A    between atoms: _15  and  _16
REMARK    9  A    between atoms: _19  and  _21
REMARK   10  A    between atoms: _21  and  _22
REMARK   11  A    between atoms: _25  and  _27
REMARK   12  A    between atoms: _27  and  _28
REMARK   13  A    between atoms: _27  and  _30
REMARK   14  A    between atoms: _30  and  _31
REMARK   15  A    between atoms: _31  and  _32
REMARK   16  A    between atoms: _34  and  _36
REMARK   17  A    between atoms: _36  and  _37
REMARK   18  A    between atoms: _36  and  _39
REMARK   19  A    between atoms: _39  and  _40
REMARK   20  A    between atoms: _43  and  _45
REMARK   21  A    between atoms: _45  and  _46
REMARK   22  A    between atoms: _45  and  _48
REMARK   23  A    between atoms: _48  and  _49
REMARK   24  A    between atoms: _49  and  _50
REMARK   25  A    between atoms: _50  and  _51
REMARK   26  A    between atoms: _51  and  _52
REMARK   27  A    between atoms: _56  and  _58
REMARK   28  A    between atoms: _58  and  _59
REMARK   29  A    between atoms: _58  and  _61
REMARK   30  A    between atoms: _61  and  _62
REMARK   31  A    between atoms: _65  and  _67
REMARK   32  A    between atoms: _67  and  _68
REMARK   33  A    between atoms: _70  and  _72
REMARK   34  A    between atoms: _72  and  _73
REMARK   35  A    between atoms: _72  and  _75
REMARK   36  A    between atoms: _75  and  _76
REMARK   37  A    between atoms: _81  and  _82
REMARK   38  A    between atoms: _85  and  _86
REMARK   39  A    between atoms: _91  and  _93
REMARK   40  A    between atoms: _93  and  _94
REMARK   41  A    between atoms: _93  and  _96
REMARK   42  A    between atoms: _96  and  _97
REMARK   43  A    between atoms: _100  and  _102
REMARK   44  A    between atoms: _102  and  _103
REMARK   45  A    between atoms: _105  and  _107
REMARK   46  A    between atoms: _107  and  _108
REMARK   47  A    between atoms: _107  and  _110
REMARK   48  A    between atoms: _110  and  _111
REMARK   49  A    between atoms: _111  and  _112
REMARK   50  A    between atoms: _112  and  _113
REMARK   51  A    between atoms: _113  and  _114
REMARK   52  A    between atoms: _118  and  _120
REMARK   53  A    between atoms: _120  and  _121
REMARK   54  A    between atoms: _120  and  _123
REMARK   55  A    between atoms: _123  and  _124
REMARK   56  A    between atoms: _127  and  _129
REMARK   57  A    between atoms: _129  and  _130
REMARK   58  A    between atoms: _129  and  _132
REMARK   59  A    between atoms: _135  and  _137
REMARK   60  A    between atoms: _137  and  _138
REMARK   61  A    between atoms: _137  and  _140
REMARK   62  A    between atoms: _140  and  _141
REMARK   63  A    between atoms: _146  and  _148
REMARK   64  A    between atoms: _148  and  _149
REMARK   65  A    between atoms: _148  and  _151
REMARK   66  A    between atoms: _151  and  _152
REMARK   67  A    between atoms: _155  and  _157
REMARK   68  A    between atoms: _157  and  _158
REMARK   69  A    between atoms: _157  and  _160
REMARK   70  A    between atoms: _160  and  _161
REMARK   71  A    between atoms: _164  and  _166
REMARK   72  A    between atoms: _166  and  _167
REMARK   73  A    between atoms: _166  and  _169
REMARK   74  A    between atoms: _169  and  _170
REMARK   75  A    between atoms: _170  and  _171
REMARK   76  A    between atoms: _174  and  _176
REMARK   77  A    between atoms: _176  and  _177
REMARK   78  A    between atoms: _176  and  _179
REMARK   79  A    between atoms: _179  and  _180
REMARK   80  A    between atoms: _180  and  _181
REMARK   81  A    between atoms: _183  and  _185
REMARK   82  A    between atoms: _185  and  _186
REMARK   83  A    between atoms: _185  and  _188
REMARK   84  A    between atoms: _188  and  _189
REMARK   85  A    between atoms: _191  and  _193
REMARK   86  A    between atoms: _193  and  _194
REMARK   87  A    between atoms: _193  and  _196
REMARK   88  A    between atoms: _196  and  _197
REMARK   89  A    between atoms: _202  and  _204
REMARK   90  A    between atoms: _204  and  _205
REMARK   91  A    between atoms: _208  and  _210
REMARK   92  A    between atoms: _210  and  _211
REMARK   93  A    between atoms: _210  and  _213
REMARK   94  A    between atoms: _213  and  _214
REMARK   95  A    between atoms: _217  and  _219
REMARK   96  A    between atoms: _219  and  _220
REMARK   97  A    between atoms: _219  and  _222
REMARK   98  A    between atoms: _225  and  _227
REMARK   99  A    between atoms: _227  and  _228
REMARK  100  A    between atoms: _231  and  _232
REMARK  101  A    between atoms: _237  and  _239
REMARK  102  A    between atoms: _239  and  _240
REMARK  103  A    between atoms: _239  and  _242
REMARK  104  A    between atoms: _242  and  _243
REMARK  105  A    between atoms: _245  and  _247
REMARK  106  A    between atoms: _247  and  _248
REMARK  107  A    between atoms: _247  and  _250
REMARK  108  A    between atoms: _250  and  _251
REMARK  109  A    between atoms: _254  and  _256
REMARK  110  A    between atoms: _256  and  _257
REMARK  111  A    between atoms: _256  and  _259
REMARK  112  A    between atoms: _259  and  _260
REMARK  113  A    between atoms: _260  and  _261
REMARK  114  A    between atoms: _261  and  _262
REMARK  115  A    between atoms: _271  and  _273
REMARK  116  A    between atoms: _273  and  _274
REMARK  117  A    between atoms: _273  and  _276
REMARK  118  A    between atoms: _276  and  _277
REMARK  119  A    between atoms: _280  and  _281
REMARK  120  A    between atoms: _286  and  _288
REMARK  121  A    between atoms: _288  and  _289
REMARK  122  A    between atoms: _291  and  _293
REMARK  123  A    between atoms: _293  and  _294
REMARK  124  A    between atoms: _293  and  _296
REMARK  125  A    between atoms: _299  and  _301
REMARK  126  A    between atoms: _301  and  _302
REMARK  127  A    between atoms: _304  and  _306
REMARK  128  A    between atoms: _306  and  _307
REMARK  129  A    between atoms: _310  and  _312
REMARK  130  A    between atoms: _312  and  _313
REMARK  131  A    between atoms: _312  and  _315
REMARK  132  A    between atoms: _315  and  _316
REMARK  133  A    between atoms: _316  and  _317
REMARK  134  A    between atoms: _322  and  _324
REMARK  135  A    between atoms: _324  and  _325
REMARK  136  A    between atoms: _327  and  _329
REMARK  137  A    between atoms: _329  and  _330
REMARK  138  A    between atoms: _332  and  _334
REMARK  139  A    between atoms: _334  and  _335
REMARK  140  A    between atoms: _334  and  _337
REMARK  141  A    between atoms: _337  and  _338
REMARK  142  A    between atoms: _341  and  _343
REMARK  143  A    between atoms: _343  and  _344
REMARK  144  A    between atoms: _343  and  _346
REMARK  145  A    between atoms: _349  and  _351
REMARK  146  A    between atoms: _351  and  _352
REMARK  147  A    between atoms: _354  and  _356
REMARK  148  A    between atoms: _356  and  _357
REMARK  149  A    between atoms: _356  and  _359
REMARK  150  A    between atoms: _359  and  _360
REMARK  151  A    between atoms: _360  and  _361
REMARK  152  A    between atoms: _361  and  _362
REMARK  153  A    between atoms: _371  and  _373
REMARK  154  A    between atoms: _373  and  _374
REMARK  155  A    between atoms: _373  and  _376
REMARK  156  A    between atoms: _376  and  _377
REMARK  157  A    between atoms: _379  and  _381
REMARK  158  A    between atoms: _381  and  _382
REMARK  159  A    between atoms: _381  and  _384
REMARK  160  A    between atoms: _384  and  _385
REMARK  161  A    between atoms: _388  and  _390
REMARK  162  A    between atoms: _390  and  _391
REMARK  163  A    between atoms: _390  and  _393
REMARK  164  A    between atoms: _393  and  _394
REMARK  165  A    between atoms: _399  and  _400
REMARK  166  A    between atoms: _402  and  _404
REMARK  167  A    between atoms: _404  and  _405
REMARK  168  A    between atoms: _404  and  _407
REMARK  169  A    between atoms: _407  and  _408
REMARK  170  A    between atoms: _411  and  _413
REMARK  171  A    between atoms: _413  and  _414
REMARK  172  A    between atoms: _417  and  _419
REMARK  173  A    between atoms: _419  and  _420
REMARK  174  A    between atoms: _419  and  _422
REMARK  175  A    between atoms: _422  and  _423
REMARK  176  A    between atoms: _426  and  _428
REMARK  177  A    between atoms: _428  and  _429
REMARK  178  A    between atoms: _428  and  _431
REMARK  179  A    between atoms: _431  and  _432
REMARK  180  A    between atoms: _436  and  _437
REMARK  181  A    between atoms: _442  and  _444
REMARK  182  A    between atoms: _444  and  _445
REMARK  183  A    between atoms: _444  and  _447
REMARK  184  A    between atoms: _447  and  _448
REMARK  185  A    between atoms: _448  and  _449
REMARK  186  A    between atoms: _452  and  _454
REMARK  187  A    between atoms: _454  and  _455
REMARK  188  A    between atoms: _454  and  _457
REMARK  189  A    between atoms: _457  and  _458
REMARK  190  A    between atoms: _461  and  _463
REMARK  191  A    between atoms: _463  and  _464
REMARK  192  A    between atoms: _463  and  _466
REMARK  193  A    between atoms: _466  and  _467
REMARK  194  A    between atoms: _472  and  _474
REMARK  195  A    between atoms: _474  and  _475
REMARK  196  A    between atoms: _474  and  _477
REMARK  197  A    between atoms: _477  and  _478
REMARK  198  A    between atoms: _478  and  _479
REMARK  199  A    between atoms: _479  and  _480
REMARK  200  A    between atoms: _480  and  _481
REMARK  201  A    between atoms: _485  and  _487
REMARK  202  A    between atoms: _487  and  _488
REMARK  203  A    between atoms: _487  and  _490
REMARK  204  A    between atoms: _490  and  _491
REMARK                            x       y       z     vdW  Elec       q    Type
REMARK                         _______ _______ _______ _____ _____    ______ ____
ROOT
ATOM      1  CA  ALA A   1       4.837  13.282   5.303  0.00  0.00    +0.133 C 
ATOM      2  CB  ALA A   1       4.431  12.064   4.477  0.00  0.00    +0.027 C 
ENDROOT
BRANCH   1   3
ATOM      3  N   ALA A   1       5.045  12.896   6.692  0.00  0.00    -0.239 NA
ATOM      4  H   ALA A   1       4.867  11.913   6.979  0.00  0.00    +0.142 HD
ENDBRANCH   1   3
BRANCH   1   5
ATOM      5  C   ALA A   1       3.780  14.376   5.183  0.00  0.00    +0.224 C 
ATOM      6  O   ALA A   1       3.730  15.085   4.184  0.00  0.00    -0.287 OA
ENDBRANCH   1   5
TORSDOF 2
REMARK  Name = ../refined-set-2016/3g1v/3g1v_pocket.pdb
REMARK  204 active torsions:
REMARK  status: ('A' for Active; 'I' for Inactive)
REMARK    1  A    between atoms: _1  and  _3
REMARK    2  A    between atoms: _3  and  _4
REMARK    3  A    between atoms: _3  and  _6
REMARK    4  A    between atoms: _6  and  _7
REMARK    5  A    between atoms: _10  and  _12
REMARK    6  A    between atoms: _12  and  _13
REMARK    7  A    between atoms: _12  and  _15
REMARK    8  A    between atoms: _15  and  _16
REMARK    9  A    between atoms: _19  and  _21
REMARK   10  A    between atoms: _21  and  _22
REMARK   11  A    between atoms: _25  and  _27
REMARK   12  A    between atoms: _27  and  _28
REMARK   13  A    between atoms: _27  and  _30
REMARK   14  A    between atoms: _30  and  _31
REMARK   15  A    between atoms: _31  and  _32
REMARK   16  A    between atoms: _34  and  _36
REMARK   17  A    between atoms: _36  and  _37
REMARK   18  A    between atoms: _36  and  _39
REMARK   19  A    between atoms: _39  and  _40
REMARK   20  A    between atoms: _43  and  _45
REMARK   21  A    between atoms: _45  and  _46
REMARK   22  A    between atoms: _45  and  _48
REMARK   23  A    between atoms: _48  and  _49
REMARK   24  A    between atoms: _49  and  _50
REMARK   25  A    between atoms: _50  and  _51
REMARK   26  A    between atoms: _51  and  _52
REMARK   27  A    between atoms: _56  and  _58
REMARK   28  A    between atoms: _58  and  _59
REMARK   29  A    between atoms: _58  and  _61
REMARK   30  A    between atoms: _61  and  _62
REMARK   31  A    between atoms: _65  and  _67
REMARK   32  A    between atoms: _67  and  _68
REMARK   33  A    between atoms: _70  and  _72
REMARK   34  A    between atoms: _72  and  _73
REMARK   35  A    between atoms: _72  and  _75
REMARK   36  A    between atoms: _75  and  _76
REMARK   37  A    between atoms: _81  and  _82
REMARK   38  A    between atoms: _85  and  _86
REMARK   39  A    between atoms: _91  and  _93
REMARK   40  A    between atoms: _93  and  _94
REMARK   41  A    between atoms: _93  and  _96
REMARK   42  A    between atoms: _96  and  _97
REMARK   43  A    between atoms: _100  and  _102
REMARK   44  A    between atoms: _102  and  _103
REMARK   45  A    between atoms: _105  and  _107
REMARK   46  A    between atoms: _107  and  _108
REMARK   47  A    between atoms: _107  and  _110
REMARK   48  A    between atoms: _110  and  _111
REMARK   49  A    between atoms: _111  and  _112
REMARK   50  A    between atoms: _112  and  _113
REMARK   51  A    between atoms: _113  and  _114
REMARK   52  A    between atoms: _118  and  _120
REMARK   53  A    between atoms: _120  and  _121
REMARK   54  A    between atoms: _120  and  _123
REMARK   55  A    between atoms: _123  and  _124
REMARK   56  A    between atoms: _127  and  _129
REMARK   57  A    between atoms: _129  and  _130
REMARK   58  A    between atoms: _129  and  _132
REMARK   59  A    between atoms: _135  and  _137
REMARK   60  A    between atoms: _137  and  _138
REMARK   61  A    between atoms: _137  and  _140
REMARK   62  A    between atoms: _140  and  _141
REMARK   63  A    between atoms: _146  and  _148
REMARK   64  A    between atoms: _148  and  _149
REMARK   65  A    between atoms: _148  and  _151
REMARK   66  A    between atoms: _151  and  _152
REMARK   67  A    between atoms: _155  and  _157
REMARK   68  A    between atoms: _157  and  _158
REMARK   69  A    between atoms: _157  and  _160
REMARK   70  A    between atoms: _160  and  _161
REMARK   71  A    between atoms: _164  and  _166
REMARK   72  A    between atoms: _166  and  _167
REMARK   73  A    between atoms: _166  and  _169
REMARK   74  A    between atoms: _169  and  _170
REMARK   75  A    between atoms: _170  and  _171
REMARK   76  A    between atoms: _174  and  _176
REMARK   77  A    between atoms: _176  and  _177
REMARK   78  A    between atoms: _176  and  _179
REMARK   79  A    between atoms: _179  and  _180
REMARK   80  A    between atoms: _180  and  _181
REMARK   81  A    between atoms: _183  and  _185
REMARK   82  A    between atoms: _185  and  _186
REMARK   83  A    between atoms: _185  and  _188
REMARK   84  A    between atoms: _188  and  _189
REMARK   85  A    between atoms: _191  and  _193
REMARK   86  A    between atoms: _193  and  _194
REMARK   87  A    between atoms: _193  and  _196
REMARK   88  A    between atoms: _196  and  _197
REMARK   89  A    between atoms: _202  and  _204
REMARK   90  A    between atoms: _204  and  _205
REMARK   91  A    between atoms: _208  and  _210
REMARK   92  A    between atoms: _210  and  _211
REMARK   93  A    between atoms: _210  and  _213
REMARK   94  A    between atoms: _213  and  _214
REMARK   95  A    between atoms: _217  and  _219
REMARK   96  A    between atoms: _219  and  _220
REMARK   97  A    between atoms: _219  and  _222
REMARK   98  A    between atoms: _225  and  _227
REMARK   99  A    between atoms: _227  and  _228
REMARK  100  A    between atoms: _231  and  _232
REMARK  101  A    between atoms: _237  and  _239
REMARK  102  A    between atoms: _239  and  _240
REMARK  103  A    between atoms: _239  and  _242
REMARK  104  A    between atoms: _242  and  _243
REMARK  105  A    between atoms: _245  and  _247
REMARK  106  A    between atoms: _247  and  _248
REMARK  107  A    between atoms: _247  and  _250
REMARK  108  A    between atoms: _250  and  _251
REMARK  109  A    between atoms: _254  and  _256
REMARK  110  A    between atoms: _256  and  _257
REMARK  111  A    between atoms: _256  and  _259
REMARK  112  A    between atoms: _259  and  _260
REMARK  113  A    between atoms: _260  and  _261
REMARK  114  A    between atoms: _261  and  _262
REMARK  115  A    between atoms: _271  and  _273
REMARK  116  A    between atoms: _273  and  _274
REMARK  117  A    between atoms: _273  and  _276
REMARK  118  A    between atoms: _276  and  _277
REMARK  119  A    between atoms: _280  and  _281
REMARK  120  A    between atoms: _286  and  _288
REMARK  121  A    between atoms: _288  and  _289
REMARK  122  A    between atoms: _291  and  _293
REMARK  123  A    between atoms: _293  and  _294
REMARK  124  A    between atoms: _293  and  _296
REMARK  125  A    between atoms: _299  and  _301
REMARK  126  A    between atoms: _301  and  _302
REMARK  127  A    between atoms: _304  and  _306
REMARK  128  A    between atoms: _306  and  _307
REMARK  129  A    between atoms: _310  and  _312
REMARK  130  A    between atoms: _312  and  _313
REMARK  131  A    between atoms: _312  and  _315
REMARK  132  A    between atoms: _315  and  _316
REMARK  133  A    between atoms: _316  and  _317
REMARK  134  A    between atoms: _322  and  _324
REMARK  135  A    between atoms: _324  and  _325
REMARK  136  A    between atoms: _327  and  _329
REMARK  137  A    between atoms: _329  and  _330
REMARK  138  A    between atoms: _332  and  _334
REMARK  139  A    between atoms: _334  and  _335
REMARK  140  A    between atoms: _334  and  _337
REMARK  141  A    between atoms: _337  and  _338
REMARK  142  A    between atoms: _341  and  _343
REMARK  143  A    between atoms: _343  and  _344
REMARK  144  A    between atoms: _343  and  _346
REMARK  145  A    between atoms: _349  and  _351
REMARK  146  A    between atoms: _351  and  _352
REMARK  147  A    between atoms: _354  and  _356
REMARK  148  A    between atoms: _356  and  _357
REMARK  149  A    between atoms: _356  and  _359
REMARK  150  A    between atoms: _359  and  _360
REMARK  151  A    between atoms: _360  and  _361
REMARK  152  A    between atoms: _361  and  _362
REMARK  153  A    between atoms: _371  and  _373
REMARK  154  A    between atoms: _373  and  _374
REMARK  155  A    between atoms: _373  and  _376
REMARK  156  A    between atoms: _376  and  _377
REMARK  157  A    between atoms: _379  and  _381
REMARK  158  A    between atoms: _381  and  _382
REMARK  159  A    between atoms: _381  and  _384
REMARK  160  A    between atoms: _384  and  _385
REMARK  161  A    between atoms: _388  and  _390
REMARK  162  A    between atoms: _390  and  _391
REMARK  163  A    between atoms: _390  and  _393
REMARK  164  A    between atoms: _393  and  _394
REMARK  165  A    between atoms: _399  and  _400
REMARK  166  A    between atoms: _402  and  _404
REMARK  167  A    between atoms: _404  and  _405
REMARK  168  A    between atoms: _404  and  _407
REMARK  169  A    between atoms: _407  and  _408
REMARK  170  A    between atoms: _411  and  _413
REMARK  171  A    between atoms: _413  and  _414
REMARK  172  A    between atoms: _417  and  _419
REMARK  173  A    between atoms: _419  and  _420
REMARK  174  A    between atoms: _419  and  _422
REMARK  175  A    between atoms: _422  and  _423
REMARK  176  A    between atoms: _426  and  _428
REMARK  177  A    between atoms: _428  and  _429
REMARK  178  A    between atoms: _428  and  _431
REMARK  179  A    between atoms: _431  and  _432
REMARK  180  A    between atoms: _436  and  _437
REMARK  181  A    between atoms: _442  and  _444
REMARK  182  A    between atoms: _444  and  _445
REMARK  183  A    between atoms: _444  and  _447
REMARK  184  A    between atoms: _447  and  _448
REMARK  185  A    between atoms: _448  and  _449
REMARK  186  A    between atoms: _452  and  _454
REMARK  187  A    between atoms: _454  and  _455
REMARK  188  A    between atoms: _454  and  _457
REMARK  189  A    between atoms: _457  and  _458
REMARK  190  A    between atoms: _461  and  _463
REMARK  191  A    between atoms: _463  and  _464
REMARK  192  A    between atoms: _463  and  _466
REMARK  193  A    between atoms: _466  and  _467
REMARK  194  A    between atoms: _472  and  _474
REMARK  195  A    between atoms: _474  and  _475
REMARK  196  A    between atoms: _474  and  _477
REMARK  197  A    between atoms: _477  and  _478
REMARK  198  A    between atoms: _478  and  _479
REMARK  199  A    between atoms: _479  and  _480
REMARK  200  A    between atoms: _480  and  _481
REMARK  201  A    between atoms: _485  and  _487
REMARK  202  A    between atoms: _487  and  _488
REMARK  203  A    between atoms: _487  and  _490
REMARK  204  A    between atoms: _490  and  _491
REMARK                            x       y       z     vdW  Elec       q    Type
REMARK                         _______ _______ _______ _____ _____    ______ ____
ROOT
ATOM      1  CA  ILE A   1       5.455  16.450   1.276  0.00  0.00    +0.133 C 
ENDROOT
BRANCH   1   2
ATOM      2  N   ILE A   1       5.613  17.238   2.488  0.00  0.00    -0.239 NA
ATOM      3  H   ILE A   1       5.865  16.768   3.381  0.00  0.00    +0.142 HD
ENDBRANCH   1   2
BRANCH   1   4
ATOM      4  CB  ILE A   1       5.966  15.007   1.481  0.00  0.00    +0.023 C 
ATOM      5  CG2 ILE A   1       5.686  14.174   0.233  0.00  0.00    +0.002 C 
BRANCH   4   6
ATOM      6  CG1 ILE A   1       7.470  15.026   1.761  0.00  0.00    +0.002 C 
ATOM      7  CD1 ILE A   1       8.053  13.668   2.087  0.00  0.00    +0.000 C 
ENDBRANCH   4   6
ENDBRANCH   1   4
BRANCH   1   8
ATOM      8  C   ILE A   1       4.037  16.393   0.724  0.00  0.00    +0.224 C 
ATOM      9  O   ILE A   1       3.827  16.599  -0.470  0.00  0.00    -0.287 OA
ENDBRANCH   1   8
TORSDOF 4
REMARK  Name = ../refined-set-2016/3g1v/3g1v_pocket.pdb
REMARK  204 active torsions:
REMARK  status: ('A' for Active; 'I' for Inactive)
REMARK    1  A    between atoms: _1  and  _3
REMARK    2  A    between atoms: _3  and  _4
REMARK    3  A    between atoms: _3  and  _6
REMARK    4  A    between atoms: _6  and  _7
REMARK    5  A    between atoms: _10  and  _12
REMARK    6  A    between atoms: _12  and  _13
REMARK    7  A    between atoms: _12  and  _15
REMARK    8  A    between atoms: _15  and  _16
REMARK    9  A    between atoms: _19  and  _21
REMARK   10  A    between atoms: _21  and  _22
REMARK   11  A    between atoms: _25  and  _27
REMARK   12  A    between atoms: _27  and  _28
REMARK   13  A    between atoms: _27  and  _30
REMARK   14  A    between atoms: _30  and  _31
REMARK   15  A    between atoms: _31  and  _32
REMARK   16  A    between atoms: _34  and  _36
REMARK   17  A    between atoms: _36  and  _37
REMARK   18  A    between atoms: _36  and  _39
REMARK   19  A    between atoms: _39  and  _40
REMARK   20  A    between atoms: _43  and  _45
REMARK   21  A    between atoms: _45  and  _46
REMARK   22  A    between atoms: _45  and  _48
REMARK   23  A    between atoms: _48  and  _49
REMARK   24  A    between atoms: _49  and  _50
REMARK   25  A    between atoms: _50  and  _51
REMARK   26  A    between atoms: _51  and  _52
REMARK   27  A    between atoms: _56  and  _58
REMARK   28  A    between atoms: _58  and  _59
REMARK   29  A    between atoms: _58  and  _61
REMARK   30  A    between atoms: _61  and  _62
REMARK   31  A    between atoms: _65  and  _67
REMARK   32  A    between atoms: _67  and  _68
REMARK   33  A    between atoms: _70  and  _72
REMARK   34  A    between atoms: _72  and  _73
REMARK   35  A    between atoms: _72  and  _75
REMARK   36  A    between atoms: _75  and  _76
REMARK   37  A    between atoms: _81  and  _82
REMARK   38  A    between atoms: _85  and  _86
REMARK   39  A    between atoms: _91  and  _93
REMARK   40  A    between atoms: _93  and  _94
REMARK   41  A    between atoms: _93  and  _96
REMARK   42  A    between atoms: _96  and  _97
REMARK   43  A    between atoms: _100  and  _102
REMARK   44  A    between atoms: _102  and  _103
REMARK   45  A    between atoms: _105  and  _107
REMARK   46  A    between atoms: _107  and  _108
REMARK   47  A    between atoms: _107  and  _110
REMARK   48  A    between atoms: _110  and  _111
REMARK   49  A    between atoms: _111  and  _112
REMARK   50  A    between atoms: _112  and  _113
REMARK   51  A    between atoms: _113  and  _114
REMARK   52  A    between atoms: _118  and  _120
REMARK   53  A    between atoms: _120  and  _121
REMARK   54  A    between atoms: _120  and  _123
REMARK   55  A    between atoms: _123  and  _124
REMARK   56  A    between atoms: _127  and  _129
REMARK   57  A    between atoms: _129  and  _130
REMARK   58  A    between atoms: _129  and  _132
REMARK   59  A    between atoms: _135  and  _137
REMARK   60  A    between atoms: _137  and  _138
REMARK   61  A    between atoms: _137  and  _140
REMARK   62  A    between atoms: _140  and  _141
REMARK   63  A    between atoms: _146  and  _148
REMARK   64  A    between atoms: _148  and  _149
REMARK   65  A    between atoms: _148  and  _151
REMARK   66  A    between atoms: _151  and  _152
REMARK   67  A    between atoms: _155  and  _157
REMARK   68  A    between atoms: _157  and  _158
REMARK   69  A    between atoms: _157  and  _160
REMARK   70  A    between atoms: _160  and  _161
REMARK   71  A    between atoms: _164  and  _166
REMARK   72  A    between atoms: _166  and  _167
REMARK   73  A    between atoms: _166  and  _169
REMARK   74  A    between atoms: _169  and  _170
REMARK   75  A    between atoms: _170  and  _171
REMARK   76  A    between atoms: _174  and  _176
REMARK   77  A    between atoms: _176  and  _177
REMARK   78  A    between atoms: _176  and  _179
REMARK   79  A    between atoms: _179  and  _180
REMARK   80  A    between atoms: _180  and  _181
REMARK   81  A    between atoms: _183  and  _185
REMARK   82  A    between atoms: _185  and  _186
REMARK   83  A    between atoms: _185  and  _188
REMARK   84  A    between atoms: _188  and  _189
REMARK   85  A    between atoms: _191  and  _193
REMARK   86  A    between atoms: _193  and  _194
REMARK   87  A    between atoms: _193  and  _196
REMARK   88  A    between atoms: _196  and  _197
REMARK   89  A    between atoms: _202  and  _204
REMARK   90  A    between atoms: _204  and  _205
REMARK   91  A    between atoms: _208  and  _210
REMARK   92  A    between atoms: _210  and  _211
REMARK   93  A    between atoms: _210  and  _213
REMARK   94  A    between atoms: _213  and  _214
REMARK   95  A    between atoms: _217  and  _219
REMARK   96  A    between atoms: _219  and  _220
REMARK   97  A    between atoms: _219  and  _222
REMARK   98  A    between atoms: _225  and  _227
REMARK   99  A    between atoms: _227  and  _228
REMARK  100  A    between atoms: _231  and  _232
REMARK  101  A    between atoms: _237  and  _239
REMARK  102  A    between atoms: _239  and  _240
REMARK  103  A    between atoms: _239  and  _242
REMARK  104  A    between atoms: _242  and  _243
REMARK  105  A    between atoms: _245  and  _247
REMARK  106  A    between atoms: _247  and  _248
REMARK  107  A    between atoms: _247  and  _250
REMARK  108  A    between atoms: _250  and  _251
REMARK  109  A    between atoms: _254  and  _256
REMARK  110  A    between atoms: _256  and  _257
REMARK  111  A    between atoms: _256  and  _259
REMARK  112  A    between atoms: _259  and  _260
REMARK  113  A    between atoms: _260  and  _261
REMARK  114  A    between atoms: _261  and  _262
REMARK  115  A    between atoms: _271  and  _273
REMARK  116  A    between atoms: _273  and  _274
REMARK  117  A    between atoms: _273  and  _276
REMARK  118  A    between atoms: _276  and  _277
REMARK  119  A    between atoms: _280  and  _281
REMARK  120  A    between atoms: _286  and  _288
REMARK  121  A    between atoms: _288  and  _289
REMARK  122  A    between atoms: _291  and  _293
REMARK  123  A    between atoms: _293  and  _294
REMARK  124  A    between atoms: _293  and  _296
REMARK  125  A    between atoms: _299  and  _301
REMARK  126  A    between atoms: _301  and  _302
REMARK  127  A    between atoms: _304  and  _306
REMARK  128  A    between atoms: _306  and  _307
REMARK  129  A    between atoms: _310  and  _312
REMARK  130  A    between atoms: _312  and  _313
REMARK  131  A    between atoms: _312  and  _315
REMARK  132  A    between atoms: _315  and  _316
REMARK  133  A    between atoms: _316  and  _317
REMARK  134  A    between atoms: _322  and  _324
REMARK  135  A    between atoms: _324  and  _325
REMARK  136  A    between atoms: _327  and  _329
REMARK  137  A    between atoms: _329  and  _330
REMARK  138  A    between atoms: _332  and  _334
REMARK  139  A    between atoms: _334  and  _335
REMARK  140  A    between atoms: _334  and  _337
REMARK  141  A    between atoms: _337  and  _338
REMARK  142  A    between atoms: _341  and  _343
REMARK  143  A    between atoms: _343  and  _344
REMARK  144  A    between atoms: _343  and  _346
REMARK  145  A    between atoms: _349  and  _351
REMARK  146  A    between atoms: _351  and  _352
REMARK  147  A    between atoms: _354  and  _356
REMARK  148  A    between atoms: _356  and  _357
REMARK  149  A    between atoms: _356  and  _359
REMARK  150  A    between atoms: _359  and  _360
REMARK  151  A    between atoms: _360  and  _361
REMARK  152  A    between atoms: _361  and  _362
REMARK  153  A    between atoms: _371  and  _373
REMARK  154  A    between atoms: _373  and  _374
REMARK  155  A    between atoms: _373  and  _376
REMARK  156  A    between atoms: _376  and  _377
REMARK  157  A    between atoms: _379  and  _381
REMARK  158  A    between atoms: _381  and  _382
REMARK  159  A    between atoms: _381  and  _384
REMARK  160  A    between atoms: _384  and  _385
REMARK  161  A    between atoms: _388  and  _390
REMARK  162  A    between atoms: _390  and  _391
REMARK  163  A    between atoms: _390  and  _393
REMARK  164  A    between atoms: _393  and  _394
REMARK  165  A    between atoms: _399  and  _400
REMARK  166  A    between atoms: _402  and  _404
REMARK  167  A    between atoms: _404  and  _405
REMARK  168  A    between atoms: _404  and  _407
REMARK  169  A    between atoms: _407  and  _408
REMARK  170  A    between atoms: _411  and  _413
REMARK  171  A    between atoms: _413  and  _414
REMARK  172  A    between atoms: _417  and  _419
REMARK  173  A    between atoms: _419  and  _420
REMARK  174  A    between atoms: _419  and  _422
REMARK  175  A    between atoms: _422  and  _423
REMARK  176  A    between atoms: _426  and  _428
REMARK  177  A    between atoms: _428  and  _429
REMARK  178  A    between atoms: _428  and  _431
REMARK  179  A    between atoms: _431  and  _432
REMARK  180  A    between atoms: _436  and  _437
REMARK  181  A    between atoms: _442  and  _444
REMARK  182  A    between atoms: _444  and  _445
REMARK  183  A    between atoms: _444  and  _447
REMARK  184  A    between atoms: _447  and  _448
REMARK  185  A    between atoms: _448  and  _449
REMARK  186  A    between atoms: _452  and  _454
REMARK  187  A    between atoms: _454  and  _455
REMARK  188  A    between atoms: _454  and  _457
REMARK  189  A    between atoms: _457  and  _458
REMARK  190  A    between atoms: _461  and  _463
REMARK  191  A    between atoms: _463  and  _464
REMARK  192  A    between atoms: _463  and  _466
REMARK  193  A    between atoms: _466  and  _467
REMARK  194  A    between atoms: _472  and  _474
REMARK  195  A    between atoms: _474  and  _475
REMARK  196  A    between atoms: _474  and  _477
REMARK  197  A    between atoms: _477  and  _478
REMARK  198  A    between atoms: _478  and  _479
REMARK  199  A    between atoms: _479  and  _480
REMARK  200  A    between atoms: _480  and  _481
REMARK  201  A    between atoms: _485  and  _487
REMARK  202  A    between atoms: _487  and  _488
REMARK  203  A    between atoms: _487  and  _490
REMARK  204  A    between atoms: _490  and  _491
REMARK                            x       y       z     vdW  Elec       q    Type
REMARK                         _______ _______ _______ _____ _____    ______ ____
ROOT
ATOM      1  C   SER A   4      -1.659   3.340   2.420  0.00  0.00    +0.243 C 
ATOM      2  N   THR A   5      -0.987   4.094   3.283  0.00  0.00    -0.295 N 
ATOM      3  H   THR A   5       0.006   4.322   3.075  0.00  0.00    +0.150 HD
ATOM      4  O   SER A   4      -2.850   3.057   2.560  0.00  0.00    -0.273 OA
ENDROOT
BRANCH   2   5
ATOM      5  CA  THR A   5      -1.579   4.616   4.510  0.00  0.00    +0.176 C 
BRANCH   5   6
ATOM      6  C   THR A   5      -2.609   5.727   4.330  0.00  0.00    +0.243 C 
ATOM      7  O   THR A   5      -3.297   6.096   5.283  0.00  0.00    -0.273 OA
ATOM      8  N   ARG A   6      -2.704   6.272   3.121  0.00  0.00    -0.298 N 
ATOM      9  H   ARG A   6      -2.077   5.936   2.362  0.00  0.00    +0.150 HD
BRANCH   8  10
ATOM     10  CA  ARG A   6      -3.668   7.331   2.833  0.00  0.00    +0.137 C 
BRANCH  10  11
ATOM     11  C   ARG A   6      -4.377   6.979   1.530  0.00  0.00    +0.227 C 
ATOM     12  O   ARG A   6      -4.033   7.487   0.458  0.00  0.00    -0.286 OA
ENDBRANCH  10  11
BRANCH  10  13
ATOM     13  CB  ARG A   6      -2.963   8.687   2.721  0.00  0.00    +0.031 C 
BRANCH  13  14
ATOM     14  CG  ARG A   6      -2.191   9.060   3.977  0.00  0.00    +0.045 C 
BRANCH  14  15
ATOM     15  CD  ARG A   6      -1.831  10.537   4.023  0.00  0.00    +0.174 C 
BRANCH  15  16
ATOM     16  NE  ARG A   6      -0.944  10.815   5.147  0.00  0.00    -0.265 N 
ATOM     17  HE  ARG A   6      -1.370  11.162   6.030  0.00  0.00    +0.259 HD
ATOM     18  CZ  ARG A   6       0.374  10.653   5.113  0.00  0.00    +0.342 C 
ATOM     19  NH2 ARG A   6       1.101  10.886   6.196  0.00  0.00    -0.292 N 
ATOM     20 HH21 ARG A   6       0.640  11.196   7.075  0.00  0.00    +0.255 HD
ATOM     21 HH22 ARG A   6       2.133  10.759   6.167  0.00  0.00    +0.255 HD
ATOM     22  NH1 ARG A   6       0.962  10.228   4.003  0.00  0.00    -0.292 N 
ATOM     23 HH11 ARG A   6       1.994  10.101   3.977  0.00  0.00    +0.255 HD
ATOM     24 HH12 ARG A   6       0.391  10.021   3.159  0.00  0.00    +0.255 HD
ENDBRANCH  15  16
ENDBRANCH  14  15
ENDBRANCH  13  14
ENDBRANCH  10  13
ENDBRANCH   8  10
ENDBRANCH   5   6
BRANCH   5  25
ATOM     25  CB  THR A   5      -0.478   5.128   5.442  0.00  0.00    +0.137 C 
ATOM     26  CG2 THR A   5       0.371   3.973   5.958  0.00  0.00    +0.034 C 
BRANCH  25  27
ATOM     27  OG1 THR A   5       0.356   6.039   4.716  0.00  0.00    -0.382 OA
ATOM     28  HG1 THR A   5       1.072   6.376   5.312  0.00  0.00    +0.210 HD
ENDBRANCH  25  27
ENDBRANCH   5  25
ENDBRANCH   2   5
BRANCH   1  29
ATOM     29  CA  SER A   4      -0.865   2.847   1.208  0.00  0.00    +0.178 C 
BRANCH  29  31
ATOM     30  C   PRO A   3      -0.019   4.987   0.393  0.00  0.00    +0.241 C 
ATOM     31  N   SER A   4       0.214   3.781   0.902  0.00  0.00    -0.295 N 
ATOM     32  H   SER A   4       1.196   3.494   1.088  0.00  0.00    +0.150 HD
ATOM     33  O   PRO A   3      -1.148   5.411   0.156  0.00  0.00    -0.273 OA
BRANCH  30  36
ATOM     34  C   GLY A   2       2.078   5.755  -2.161  0.00  0.00    +0.246 C 
ATOM     35  N   PRO A   3       1.537   6.435  -1.135  0.00  0.00    -0.272 N 
ATOM     36  CA  PRO A   3       1.212   5.859   0.176  0.00  0.00    +0.152 C 
ATOM     37  CB  PRO A   3       1.164   7.090   1.064  0.00  0.00    +0.031 C 
ATOM     38  CG  PRO A   3       0.469   8.072   0.168  0.00  0.00    +0.024 C 
ATOM     39  CD  PRO A   3       1.183   7.868  -1.170  0.00  0.00    +0.094 C 
ATOM     40  O   GLY A   2       2.263   4.542  -2.104  0.00  0.00    -0.273 OA
BRANCH  34  41
ATOM     41  CA  GLY A   2       2.388   6.497  -3.451  0.00  0.00    +0.176 C 
BRANCH  41  43
ATOM     42  C   VAL A   1       4.388   6.320  -4.865  0.00  0.00    +0.238 C 
ATOM     43  N   GLY A   2       3.358   5.746  -4.239  0.00  0.00    -0.296 N 
ATOM     44  H   GLY A   2       3.242   4.715  -4.317  0.00  0.00    +0.150 HD
ATOM     45  O   VAL A   1       4.612   7.534  -4.840  0.00  0.00    -0.274 OA
BRANCH  42  46
ATOM     46  CA  VAL A   1       5.298   5.378  -5.658  0.00  0.00    +0.145 C 
BRANCH  46  47
ATOM     47  CB  VAL A   1       6.673   5.274  -4.945  0.00  0.00    +0.025 C 
ATOM     48  CG2 VAL A   1       6.520   4.535  -3.618  0.00  0.00    +0.002 C 
ATOM     49  CG1 VAL A   1       7.672   4.557  -5.840  0.00  0.00    +0.002 C 
ENDBRANCH  46  47
BRANCH  46  50
ATOM     50  N   VAL A   1       5.417   5.938  -7.003  0.00  0.00    -0.238 NA
ATOM     51  H   VAL A   1       5.685   6.938  -7.102  0.00  0.00    +0.142 HD
ENDBRANCH  46  50
ENDBRANCH  42  46
ENDBRANCH  41  43
ENDBRANCH  34  41
ENDBRANCH  30  36
ENDBRANCH  29  31
BRANCH  29  52
ATOM     52  CB  SER A   4      -0.277   1.466   1.518  0.00  0.00    +0.166 C 
BRANCH  52  53
ATOM     53  OG  SER A   4      -1.242   0.609   2.110  0.00  0.00    -0.380 OA
ATOM     54  H   SER A   4      -2.004   0.493   1.489  0.00  0.00    +0.211 HD
ENDBRANCH  52  53
ENDBRANCH  29  52
ENDBRANCH   1  29
TORSDOF 20
REMARK  Name = ../refined-set-2016/3g1v/3g1v_pocket.pdb
REMARK  204 active torsions:
REMARK  status: ('A' for Active; 'I' for Inactive)
REMARK    1  A    between atoms: _1  and  _3
REMARK    2  A    between atoms: _3  and  _4
REMARK    3  A    between atoms: _3  and  _6
REMARK    4  A    between atoms: _6  and  _7
REMARK    5  A    between atoms: _10  and  _12
REMARK    6  A    between atoms: _12  and  _13
REMARK    7  A    between atoms: _12  and  _15
REMARK    8  A    between atoms: _15  and  _16
REMARK    9  A    between atoms: _19  and  _21
REMARK   10  A    between atoms: _21  and  _22
REMARK   11  A    between atoms: _25  and  _27
REMARK   12  A    between atoms: _27  and  _28
REMARK   13  A    between atoms: _27  and  _30
REMARK   14  A    between atoms: _30  and  _31
REMARK   15  A    between atoms: _31  and  _32
REMARK   16  A    between atoms: _34  and  _36
REMARK   17  A    between atoms: _36  and  _37
REMARK   18  A    between atoms: _36  and  _39
REMARK   19  A    between atoms: _39  and  _40
REMARK   20  A    between atoms: _43  and  _45
REMARK   21  A    between atoms: _45  and  _46
REMARK   22  A    between atoms: _45  and  _48
REMARK   23  A    between atoms: _48  and  _49
REMARK   24  A    between atoms: _49  and  _50
REMARK   25  A    between atoms: _50  and  _51
REMARK   26  A    between atoms: _51  and  _52
REMARK   27  A    between atoms: _56  and  _58
REMARK   28  A    between atoms: _58  and  _59
REMARK   29  A    between atoms: _58  and  _61
REMARK   30  A    between atoms: _61  and  _62
REMARK   31  A    between atoms: _65  and  _67
REMARK   32  A    between atoms: _67  and  _68
REMARK   33  A    between atoms: _70  and  _72
REMARK   34  A    between atoms: _72  and  _73
REMARK   35  A    between atoms: _72  and  _75
REMARK   36  A    between atoms: _75  and  _76
REMARK   37  A    between atoms: _81  and  _82
REMARK   38  A    between atoms: _85  and  _86
REMARK   39  A    between atoms: _91  and  _93
REMARK   40  A    between atoms: _93  and  _94
REMARK   41  A    between atoms: _93  and  _96
REMARK   42  A    between atoms: _96  and  _97
REMARK   43  A    between atoms: _100  and  _102
REMARK   44  A    between atoms: _102  and  _103
REMARK   45  A    between atoms: _105  and  _107
REMARK   46  A    between atoms: _107  and  _108
REMARK   47  A    between atoms: _107  and  _110
REMARK   48  A    between atoms: _110  and  _111
REMARK   49  A    between atoms: _111  and  _112
REMARK   50  A    between atoms: _112  and  _113
REMARK   51  A    between atoms: _113  and  _114
REMARK   52  A    between atoms: _118  and  _120
REMARK   53  A    between atoms: _120  and  _121
REMARK   54  A    between atoms: _120  and  _123
REMARK   55  A    between atoms: _123  and  _124
REMARK   56  A    between atoms: _127  and  _129
REMARK   57  A    between atoms: _129  and  _130
REMARK   58  A    between atoms: _129  and  _132
REMARK   59  A    between atoms: _135  and  _137
REMARK   60  A    between atoms: _137  and  _138
REMARK   61  A    between atoms: _137  and  _140
REMARK   62  A    between atoms: _140  and  _141
REMARK   63  A    between atoms: _146  and  _148
REMARK   64  A    between atoms: _148  and  _149
REMARK   65  A    between atoms: _148  and  _151
REMARK   66  A    between atoms: _151  and  _152
REMARK   67  A    between atoms: _155  and  _157
REMARK   68  A    between atoms: _157  and  _158
REMARK   69  A    between atoms: _157  and  _160
REMARK   70  A    between atoms: _160  and  _161
REMARK   71  A    between atoms: _164  and  _166
REMARK   72  A    between atoms: _166  and  _167
REMARK   73  A    between atoms: _166  and  _169
REMARK   74  A    between atoms: _169  and  _170
REMARK   75  A    between atoms: _170  and  _171
REMARK   76  A    between atoms: _174  and  _176
REMARK   77  A    between atoms: _176  and  _177
REMARK   78  A    between atoms: _176  and  _179
REMARK   79  A    between atoms: _179  and  _180
REMARK   80  A    between atoms: _180  and  _181
REMARK   81  A    between atoms: _183  and  _185
REMARK   82  A    between atoms: _185  and  _186
REMARK   83  A    between atoms: _185  and  _188
REMARK   84  A    between atoms: _188  and  _189
REMARK   85  A    between atoms: _191  and  _193
REMARK   86  A    between atoms: _193  and  _194
REMARK   87  A    between atoms: _193  and  _196
REMARK   88  A    between atoms: _196  and  _197
REMARK   89  A    between atoms: _202  and  _204
REMARK   90  A    between atoms: _204  and  _205
REMARK   91  A    between atoms: _208  and  _210
REMARK   92  A    between atoms: _210  and  _211
REMARK   93  A    between atoms: _210  and  _213
REMARK   94  A    between atoms: _213  and  _214
REMARK   95  A    between atoms: _217  and  _219
REMARK   96  A    between atoms: _219  and  _220
REMARK   97  A    between atoms: _219  and  _222
REMARK   98  A    between atoms: _225  and  _227
REMARK   99  A    between atoms: _227  and  _228
REMARK  100  A    between atoms: _231  and  _232
REMARK  101  A    between atoms: _237  and  _239
REMARK  102  A    between atoms: _239  and  _240
REMARK  103  A    between atoms: _239  and  _242
REMARK  104  A    between atoms: _242  and  _243
REMARK  105  A    between atoms: _245  and  _247
REMARK  106  A    between atoms: _247  and  _248
REMARK  107  A    between atoms: _247  and  _250
REMARK  108  A    between atoms: _250  and  _251
REMARK  109  A    between atoms: _254  and  _256
REMARK  110  A    between atoms: _256  and  _257
REMARK  111  A    between atoms: _256  and  _259
REMARK  112  A    between atoms: _259  and  _260
REMARK  113  A    between atoms: _260  and  _261
REMARK  114  A    between atoms: _261  and  _262
REMARK  115  A    between atoms: _271  and  _273
REMARK  116  A    between atoms: _273  and  _274
REMARK  117  A    between atoms: _273  and  _276
REMARK  118  A    between atoms: _276  and  _277
REMARK  119  A    between atoms: _280  and  _281
REMARK  120  A    between atoms: _286  and  _288
REMARK  121  A    between atoms: _288  and  _289
REMARK  122  A    between atoms: _291  and  _293
REMARK  123  A    between atoms: _293  and  _294
REMARK  124  A    between atoms: _293  and  _296
REMARK  125  A    between atoms: _299  and  _301
REMARK  126  A    between atoms: _301  and  _302
REMARK  127  A    between atoms: _304  and  _306
REMARK  128  A    between atoms: _306  and  _307
REMARK  129  A    between atoms: _310  and  _312
REMARK  130  A    between atoms: _312  and  _313
REMARK  131  A    between atoms: _312  and  _315
REMARK  132  A    between atoms: _315  and  _316
REMARK  133  A    between atoms: _316  and  _317
REMARK  134  A    between atoms: _322  and  _324
REMARK  135  A    between atoms: _324  and  _325
REMARK  136  A    between atoms: _327  and  _329
REMARK  137  A    between atoms: _329  and  _330
REMARK  138  A    between atoms: _332  and  _334
REMARK  139  A    between atoms: _334  and  _335
REMARK  140  A    between atoms: _334  and  _337
REMARK  141  A    between atoms: _337  and  _338
REMARK  142  A    between atoms: _341  and  _343
REMARK  143  A    between atoms: _343  and  _344
REMARK  144  A    between atoms: _343  and  _346
REMARK  145  A    between atoms: _349  and  _351
REMARK  146  A    between atoms: _351  and  _352
REMARK  147  A    between atoms: _354  and  _356
REMARK  148  A    between atoms: _356  and  _357
REMARK  149  A    between atoms: _356  and  _359
REMARK  150  A    between atoms: _359  and  _360
REMARK  151  A    between atoms: _360  and  _361
REMARK  152  A    between atoms: _361  and  _362
REMARK  153  A    between atoms: _371  and  _373
REMARK  154  A    between atoms: _373  and  _374
REMARK  155  A    between atoms: _373  and  _376
REMARK  156  A    between atoms: _376  and  _377
REMARK  157  A    between atoms: _379  and  _381
REMARK  158  A    between atoms: _381  and  _382
REMARK  159  A    between atoms: _381  and  _384
REMARK  160  A    between atoms: _384  and  _385
REMARK  161  A    between atoms: _388  and  _390
REMARK  162  A    between atoms: _390  and  _391
REMARK  163  A    between atoms: _390  and  _393
REMARK  164  A    between atoms: _393  and  _394
REMARK  165  A    between atoms: _399  and  _400
REMARK  166  A    between atoms: _402  and  _404
REMARK  167  A    between atoms: _404  and  _405
REMARK  168  A    between atoms: _404  and  _407
REMARK  169  A    between atoms: _407  and  _408
REMARK  170  A    between atoms: _411  and  _413
REMARK  171  A    between atoms: _413  and  _414
REMARK  172  A    between atoms: _417  and  _419
REMARK  173  A    between atoms: _419  and  _420
REMARK  174  A    between atoms: _419  and  _422
REMARK  175  A    between atoms: _422  and  _423
REMARK  176  A    between atoms: _426  and  _428
REMARK  177  A    between atoms: _428  and  _429
REMARK  178  A    between atoms: _428  and  _431
REMARK  179  A    between atoms: _431  and  _432
REMARK  180  A    between atoms: _436  and  _437
REMARK  181  A    between atoms: _442  and  _444
REMARK  182  A    between atoms: _444  and  _445
REMARK  183  A    between atoms: _444  and  _447
REMARK  184  A    between atoms: _447  and  _448
REMARK  185  A    between atoms: _448  and  _449
REMARK  186  A    between atoms: _452  and  _454
REMARK  187  A    between atoms: _454  and  _455
REMARK  188  A    between atoms: _454  and  _457
REMARK  189  A    between atoms: _457  and  _458
REMARK  190  A    between atoms: _461  and  _463
REMARK  191  A    between atoms: _463  and  _464
REMARK  192  A    between atoms: _463  and  _466
REMARK  193  A    between atoms: _466  and  _467
REMARK  194  A    between atoms: _472  and  _474
REMARK  195  A    between atoms: _474  and  _475
REMARK  196  A    between atoms: _474  and  _477
REMARK  197  A    between atoms: _477  and  _478
REMARK  198  A    between atoms: _478  and  _479
REMARK  199  A    between atoms: _479  and  _480
REMARK  200  A    between atoms: _480  and  _481
REMARK  201  A    between atoms: _485  and  _487
REMARK  202  A    between atoms: _487  and  _488
REMARK  203  A    between atoms: _487  and  _490
REMARK  204  A    between atoms: _490  and  _491
REMARK                            x       y       z     vdW  Elec       q    Type
REMARK                         _______ _______ _______ _____ _____    ______ ____
ROOT
ATOM      1  CA  GLY A   5       1.113  -4.237   7.035  0.00  0.00    +0.176 C 
ENDROOT
BRANCH   1   3
ATOM      2  C   VAL A   4       1.605  -3.052   4.997  0.00  0.00    +0.241 C 
ATOM      3  N   GLY A   5       0.722  -3.378   5.934  0.00  0.00    -0.295 N 
ATOM      4  H   GLY A   5      -0.252  -3.017   5.878  0.00  0.00    +0.150 HD
ATOM      5  O   VAL A   4       2.774  -3.438   5.017  0.00  0.00    -0.273 OA
BRANCH   2   6
ATOM      6  CA  VAL A   4       1.098  -2.157   3.871  0.00  0.00    +0.149 C 
BRANCH   6   9
ATOM      7  C   GLY A   3       1.923   0.088   4.385  0.00  0.00    +0.243 C 
ATOM      8  O   GLY A   3       1.071   0.270   5.258  0.00  0.00    -0.273 OA
ATOM      9  N   VAL A   4       2.007  -1.033   3.672  0.00  0.00    -0.297 N 
ATOM     10  H   VAL A   4       2.748  -1.111   2.946  0.00  0.00    +0.150 HD
BRANCH   7  11
ATOM     11  CA  GLY A   3       2.945   1.164   4.070  0.00  0.00    +0.176 C 
BRANCH  11  13
ATOM     12  C   PRO A   2       3.597   1.419   1.757  0.00  0.00    +0.241 C 
ATOM     13  N   GLY A   3       3.762   0.809   2.923  0.00  0.00    -0.295 N 
ATOM     14  H   GLY A   3       4.485   0.068   3.017  0.00  0.00    +0.150 HD
ATOM     15  O   PRO A   2       2.767   2.316   1.580  0.00  0.00    -0.273 OA
BRANCH  12  18
ATOM     16  C   SER A   1       3.194   0.773  -1.463  0.00  0.00    +0.244 C 
ATOM     17  N   PRO A   2       3.996   1.485  -0.650  0.00  0.00    -0.272 N 
ATOM     18  CA  PRO A   2       4.506   0.956   0.617  0.00  0.00    +0.152 C 
ATOM     19  CB  PRO A   2       5.893   1.571   0.702  0.00  0.00    +0.031 C 
ATOM     20  CG  PRO A   2       5.649   2.952   0.163  0.00  0.00    +0.024 C 
ATOM     21  CD  PRO A   2       4.701   2.731  -1.017  0.00  0.00    +0.094 C 
ATOM     22  O   SER A   1       2.849  -0.378  -1.200  0.00  0.00    -0.273 OA
BRANCH  16  23
ATOM     23  CA  SER A   1       2.724   1.450  -2.745  0.00  0.00    +0.175 C 
BRANCH  23  24
ATOM     24  N   SER A   1       3.036   0.777  -3.995  0.00  0.00    -0.236 NA
ATOM     25  H   SER A   1       3.010  -0.261  -4.050  0.00  0.00    +0.142 HD
ENDBRANCH  23  24
BRANCH  23  26
ATOM     26  CB  SER A   1       1.203   1.630  -2.701  0.00  0.00    +0.163 C 
BRANCH  26  27
ATOM     27  OG  SER A   1       0.765   2.255  -1.515  0.00  0.00    -0.380 OA
ATOM     28  H   SER A   1       1.180   3.151  -1.443  0.00  0.00    +0.211 HD
ENDBRANCH  26  27
ENDBRANCH  23  26
ENDBRANCH  16  23
ENDBRANCH  12  18
ENDBRANCH  11  13
ENDBRANCH   7  11
ENDBRANCH   6   9
BRANCH   6  29
ATOM     29  CB  VAL A   4       0.980  -3.008   2.588  0.00  0.00    +0.027 C 
ATOM     30  CG2 VAL A   4       0.090  -4.216   2.837  0.00  0.00    +0.002 C 
ATOM     31  CG1 VAL A   4       0.430  -2.161   1.456  0.00  0.00    +0.002 C 
ENDBRANCH   6  29
ENDBRANCH   2   6
ENDBRANCH   1   3
BRANCH   1  32
ATOM     32  C   GLY A   5       1.551  -3.480   8.271  0.00  0.00    +0.243 C 
ATOM     33  O   GLY A   5       0.719  -2.940   8.997  0.00  0.00    -0.273 OA
ATOM     34  N   ALA A   6       2.859  -3.431   8.506  0.00  0.00    -0.297 N 
ATOM     35  H   ALA A   6       3.508  -3.892   7.837  0.00  0.00    +0.150 HD
BRANCH  34  36
ATOM     36  CA  ALA A   6       3.413  -2.751   9.672  0.00  0.00    +0.149 C 
ATOM     37  CB  ALA A   6       4.937  -2.742   9.593  0.00  0.00    +0.031 C 
BRANCH  36  38
ATOM     38  C   ALA A   6       2.901  -1.329   9.866  0.00  0.00    +0.241 C 
ATOM     39  O   ALA A   6       2.591  -0.929  10.987  0.00  0.00    -0.273 OA
ATOM     40  N   GLN A   7       2.807  -0.566   8.782  0.00  0.00    -0.297 N 
ATOM     41  H   GLN A   7       3.063  -0.961   7.855  0.00  0.00    +0.150 HD
BRANCH  40  42
ATOM     42  CA  GLN A   7       2.351   0.816   8.871  0.00  0.00    +0.149 C 
BRANCH  42  43
ATOM     43  C   GLN A   7       0.834   0.980   8.876  0.00  0.00    +0.241 C 
ATOM     44  O   GLN A   7       0.329   2.100   8.977  0.00  0.00    -0.273 OA
ATOM     45  N   GLY A   8       0.113  -0.130   8.752  0.00  0.00    -0.295 N 
ATOM     46  H   GLY A   8       0.592  -1.044   8.619  0.00  0.00    +0.150 HD
BRANCH  45  47
ATOM     47  CA  GLY A   8      -1.338  -0.078   8.800  0.00  0.00    +0.176 C 
BRANCH  47  48
ATOM     48  C   GLY A   8      -2.118  -0.179   7.505  0.00  0.00    +0.243 C 
ATOM     49  O   GLY A   8      -3.343  -0.297   7.535  0.00  0.00    -0.273 OA
ATOM     50  N   GLY A   9      -1.428  -0.133   6.370  0.00  0.00    -0.296 N 
ATOM     51  H   GLY A   9      -0.393  -0.033   6.396  0.00  0.00    +0.150 HD
BRANCH  50  52
ATOM     52  CA  GLY A   9      -2.114  -0.222   5.094  0.00  0.00    +0.163 C 
BRANCH  52  53
ATOM     53  C   GLY A   9      -2.694  -1.600   4.826  0.00  0.00    +0.229 C 
ATOM     54  O   GLY A   9      -2.123  -2.613   5.227  0.00  0.00    -0.286 OA
ENDBRANCH  52  53
ENDBRANCH  50  52
ENDBRANCH  47  48
ENDBRANCH  45  47
ENDBRANCH  42  43
BRANCH  42  55
ATOM     55  CB  GLN A   7       2.976   1.642   7.747  0.00  0.00    +0.039 C 
BRANCH  55  56
ATOM     56  CG  GLN A   7       4.489   1.720   7.845  0.00  0.00    +0.087 C 
BRANCH  56  57
ATOM     57  CD  GLN A   7       5.097   2.513   6.718  0.00  0.00    +0.219 C 
ATOM     58  OE1 GLN A   7       4.780   3.688   6.531  0.00  0.00    -0.275 OA
ATOM     59  NE2 GLN A   7       5.978   1.876   5.954  0.00  0.00    -0.329 N 
ATOM     60 HE21 GLN A   7       6.214   0.883   6.151  0.00  0.00    +0.145 HD
ATOM     61 HE22 GLN A   7       6.431   2.371   5.159  0.00  0.00    +0.145 HD
ENDBRANCH  56  57
ENDBRANCH  55  56
ENDBRANCH  42  55
ENDBRANCH  40  42
ENDBRANCH  36  38
ENDBRANCH  34  36
ENDBRANCH   1  32
TORSDOF 23
REMARK  Name = ../refined-set-2016/3g1v/3g1v_pocket.pdb
REMARK  204 active torsions:
REMARK  status: ('A' for Active; 'I' for Inactive)
REMARK    1  A    between atoms: _1  and  _3
REMARK    2  A    between atoms: _3  and  _4
REMARK    3  A    between atoms: _3  and  _6
REMARK    4  A    between atoms: _6  and  _7
REMARK    5  A    between atoms: _10  and  _12
REMARK    6  A    between atoms: _12  and  _13
REMARK    7  A    between atoms: _12  and  _15
REMARK    8  A    between atoms: _15  and  _16
REMARK    9  A    between atoms: _19  and  _21
REMARK   10  A    between atoms: _21  and  _22
REMARK   11  A    between atoms: _25  and  _27
REMARK   12  A    between atoms: _27  and  _28
REMARK   13  A    between atoms: _27  and  _30
REMARK   14  A    between atoms: _30  and  _31
REMARK   15  A    between atoms: _31  and  _32
REMARK   16  A    between atoms: _34  and  _36
REMARK   17  A    between atoms: _36  and  _37
REMARK   18  A    between atoms: _36  and  _39
REMARK   19  A    between atoms: _39  and  _40
REMARK   20  A    between atoms: _43  and  _45
REMARK   21  A    between atoms: _45  and  _46
REMARK   22  A    between atoms: _45  and  _48
REMARK   23  A    between atoms: _48  and  _49
REMARK   24  A    between atoms: _49  and  _50
REMARK   25  A    between atoms: _50  and  _51
REMARK   26  A    between atoms: _51  and  _52
REMARK   27  A    between atoms: _56  and  _58
REMARK   28  A    between atoms: _58  and  _59
REMARK   29  A    between atoms: _58  and  _61
REMARK   30  A    between atoms: _61  and  _62
REMARK   31  A    between atoms: _65  and  _67
REMARK   32  A    between atoms: _67  and  _68
REMARK   33  A    between atoms: _70  and  _72
REMARK   34  A    between atoms: _72  and  _73
REMARK   35  A    between atoms: _72  and  _75
REMARK   36  A    between atoms: _75  and  _76
REMARK   37  A    between atoms: _81  and  _82
REMARK   38  A    between atoms: _85  and  _86
REMARK   39  A    between atoms: _91  and  _93
REMARK   40  A    between atoms: _93  and  _94
REMARK   41  A    between atoms: _93  and  _96
REMARK   42  A    between atoms: _96  and  _97
REMARK   43  A    between atoms: _100  and  _102
REMARK   44  A    between atoms: _102  and  _103
REMARK   45  A    between atoms: _105  and  _107
REMARK   46  A    between atoms: _107  and  _108
REMARK   47  A    between atoms: _107  and  _110
REMARK   48  A    between atoms: _110  and  _111
REMARK   49  A    between atoms: _111  and  _112
REMARK   50  A    between atoms: _112  and  _113
REMARK   51  A    between atoms: _113  and  _114
REMARK   52  A    between atoms: _118  and  _120
REMARK   53  A    between atoms: _120  and  _121
REMARK   54  A    between atoms: _120  and  _123
REMARK   55  A    between atoms: _123  and  _124
REMARK   56  A    between atoms: _127  and  _129
REMARK   57  A    between atoms: _129  and  _130
REMARK   58  A    between atoms: _129  and  _132
REMARK   59  A    between atoms: _135  and  _137
REMARK   60  A    between atoms: _137  and  _138
REMARK   61  A    between atoms: _137  and  _140
REMARK   62  A    between atoms: _140  and  _141
REMARK   63  A    between atoms: _146  and  _148
REMARK   64  A    between atoms: _148  and  _149
REMARK   65  A    between atoms: _148  and  _151
REMARK   66  A    between atoms: _151  and  _152
REMARK   67  A    between atoms: _155  and  _157
REMARK   68  A    between atoms: _157  and  _158
REMARK   69  A    between atoms: _157  and  _160
REMARK   70  A    between atoms: _160  and  _161
REMARK   71  A    between atoms: _164  and  _166
REMARK   72  A    between atoms: _166  and  _167
REMARK   73  A    between atoms: _166  and  _169
REMARK   74  A    between atoms: _169  and  _170
REMARK   75  A    between atoms: _170  and  _171
REMARK   76  A    between atoms: _174  and  _176
REMARK   77  A    between atoms: _176  and  _177
REMARK   78  A    between atoms: _176  and  _179
REMARK   79  A    between atoms: _179  and  _180
REMARK   80  A    between atoms: _180  and  _181
REMARK   81  A    between atoms: _183  and  _185
REMARK   82  A    between atoms: _185  and  _186
REMARK   83  A    between atoms: _185  and  _188
REMARK   84  A    between atoms: _188  and  _189
REMARK   85  A    between atoms: _191  and  _193
REMARK   86  A    between atoms: _193  and  _194
REMARK   87  A    between atoms: _193  and  _196
REMARK   88  A    between atoms: _196  and  _197
REMARK   89  A    between atoms: _202  and  _204
REMARK   90  A    between atoms: _204  and  _205
REMARK   91  A    between atoms: _208  and  _210
REMARK   92  A    between atoms: _210  and  _211
REMARK   93  A    between atoms: _210  and  _213
REMARK   94  A    between atoms: _213  and  _214
REMARK   95  A    between atoms: _217  and  _219
REMARK   96  A    between atoms: _219  and  _220
REMARK   97  A    between atoms: _219  and  _222
REMARK   98  A    between atoms: _225  and  _227
REMARK   99  A    between atoms: _227  and  _228
REMARK  100  A    between atoms: _231  and  _232
REMARK  101  A    between atoms: _237  and  _239
REMARK  102  A    between atoms: _239  and  _240
REMARK  103  A    between atoms: _239  and  _242
REMARK  104  A    between atoms: _242  and  _243
REMARK  105  A    between atoms: _245  and  _247
REMARK  106  A    between atoms: _247  and  _248
REMARK  107  A    between atoms: _247  and  _250
REMARK  108  A    between atoms: _250  and  _251
REMARK  109  A    between atoms: _254  and  _256
REMARK  110  A    between atoms: _256  and  _257
REMARK  111  A    between atoms: _256  and  _259
REMARK  112  A    between atoms: _259  and  _260
REMARK  113  A    between atoms: _260  and  _261
REMARK  114  A    between atoms: _261  and  _262
REMARK  115  A    between atoms: _271  and  _273
REMARK  116  A    between atoms: _273  and  _274
REMARK  117  A    between atoms: _273  and  _276
REMARK  118  A    between atoms: _276  and  _277
REMARK  119  A    between atoms: _280  and  _281
REMARK  120  A    between atoms: _286  and  _288
REMARK  121  A    between atoms: _288  and  _289
REMARK  122  A    between atoms: _291  and  _293
REMARK  123  A    between atoms: _293  and  _294
REMARK  124  A    between atoms: _293  and  _296
REMARK  125  A    between atoms: _299  and  _301
REMARK  126  A    between atoms: _301  and  _302
REMARK  127  A    between atoms: _304  and  _306
REMARK  128  A    between atoms: _306  and  _307
REMARK  129  A    between atoms: _310  and  _312
REMARK  130  A    between atoms: _312  and  _313
REMARK  131  A    between atoms: _312  and  _315
REMARK  132  A    between atoms: _315  and  _316
REMARK  133  A    between atoms: _316  and  _317
REMARK  134  A    between atoms: _322  and  _324
REMARK  135  A    between atoms: _324  and  _325
REMARK  136  A    between atoms: _327  and  _329
REMARK  137  A    between atoms: _329  and  _330
REMARK  138  A    between atoms: _332  and  _334
REMARK  139  A    between atoms: _334  and  _335
REMARK  140  A    between atoms: _334  and  _337
REMARK  141  A    between atoms: _337  and  _338
REMARK  142  A    between atoms: _341  and  _343
REMARK  143  A    between atoms: _343  and  _344
REMARK  144  A    between atoms: _343  and  _346
REMARK  145  A    between atoms: _349  and  _351
REMARK  146  A    between atoms: _351  and  _352
REMARK  147  A    between atoms: _354  and  _356
REMARK  148  A    between atoms: _356  and  _357
REMARK  149  A    between atoms: _356  and  _359
REMARK  150  A    between atoms: _359  and  _360
REMARK  151  A    between atoms: _360  and  _361
REMARK  152  A    between atoms: _361  and  _362
REMARK  153  A    between atoms: _371  and  _373
REMARK  154  A    between atoms: _373  and  _374
REMARK  155  A    between atoms: _373  and  _376
REMARK  156  A    between atoms: _376  and  _377
REMARK  157  A    between atoms: _379  and  _381
REMARK  158  A    between atoms: _381  and  _382
REMARK  159  A    between atoms: _381  and  _384
REMARK  160  A    between atoms: _384  and  _385
REMARK  161  A    between atoms: _388  and  _390
REMARK  162  A    between atoms: _390  and  _391
REMARK  163  A    between atoms: _390  and  _393
REMARK  164  A    between atoms: _393  and  _394
REMARK  165  A    between atoms: _399  and  _400
REMARK  166  A    between atoms: _402  and  _404
REMARK  167  A    between atoms: _404  and  _405
REMARK  168  A    between atoms: _404  and  _407
REMARK  169  A    between atoms: _407  and  _408
REMARK  170  A    between atoms: _411  and  _413
REMARK  171  A    between atoms: _413  and  _414
REMARK  172  A    between atoms: _417  and  _419
REMARK  173  A    between atoms: _419  and  _420
REMARK  174  A    between atoms: _419  and  _422
REMARK  175  A    between atoms: _422  and  _423
REMARK  176  A    between atoms: _426  and  _428
REMARK  177  A    between atoms: _428  and  _429
REMARK  178  A    between atoms: _428  and  _431
REMARK  179  A    between atoms: _431  and  _432
REMARK  180  A    between atoms: _436  and  _437
REMARK  181  A    between atoms: _442  and  _444
REMARK  182  A    between atoms: _444  and  _445
REMARK  183  A    between atoms: _444  and  _447
REMARK  184  A    between atoms: _447  and  _448
REMARK  185  A    between atoms: _448  and  _449
REMARK  186  A    between atoms: _452  and  _454
REMARK  187  A    between atoms: _454  and  _455
REMARK  188  A    between atoms: _454  and  _457
REMARK  189  A    between atoms: _457  and  _458
REMARK  190  A    between atoms: _461  and  _463
REMARK  191  A    between atoms: _463  and  _464
REMARK  192  A    between atoms: _463  and  _466
REMARK  193  A    between atoms: _466  and  _467
REMARK  194  A    between atoms: _472  and  _474
REMARK  195  A    between atoms: _474  and  _475
REMARK  196  A    between atoms: _474  and  _477
REMARK  197  A    between atoms: _477  and  _478
REMARK  198  A    between atoms: _478  and  _479
REMARK  199  A    between atoms: _479  and  _480
REMARK  200  A    between atoms: _480  and  _481
REMARK  201  A    between atoms: _485  and  _487
REMARK  202  A    between atoms: _487  and  _488
REMARK  203  A    between atoms: _487  and  _490
REMARK  204  A    between atoms: _490  and  _491
REMARK                            x       y       z     vdW  Elec       q    Type
REMARK                         _______ _______ _______ _____ _____    ______ ____
ROOT
ATOM      1  C   ARG A   4       7.264  -7.241   8.266  0.00  0.00    +0.241 C 
ATOM      2  O   ARG A   4       7.517  -8.268   8.907  0.00  0.00    -0.273 OA
ATOM      3  N   SER A   5       6.069  -7.000   7.735  0.00  0.00    -0.295 N 
ATOM      4  H   SER A   5       5.908  -6.116   7.211  0.00  0.00    +0.150 HD
ENDROOT
BRANCH   3   5
ATOM      5  CA  SER A   5       4.979  -7.964   7.879  0.00  0.00    +0.178 C 
BRANCH   5   6
ATOM      6  C   SER A   5       5.411  -9.332   7.375  0.00  0.00    +0.243 C 
ATOM      7  O   SER A   5       4.858 -10.357   7.777  0.00  0.00    -0.273 OA
ATOM      8  N   ILE A   6       6.395  -9.345   6.484  0.00  0.00    -0.297 N 
ATOM      9  H   ILE A   6       6.803  -8.446   6.158  0.00  0.00    +0.150 HD
BRANCH   8  10
ATOM     10  CA  ILE A   6       6.910 -10.599   5.957  0.00  0.00    +0.149 C 
BRANCH  10  11
ATOM     11  C   ILE A   6       8.258 -10.977   6.570  0.00  0.00    +0.241 C 
ATOM     12  O   ILE A   6       8.380 -12.033   7.193  0.00  0.00    -0.273 OA
ATOM     13  N   TYR A   7       9.261 -10.112   6.438  0.00  0.00    -0.297 N 
ATOM     14  H   TYR A   7       9.105  -9.188   5.986  0.00  0.00    +0.150 HD
BRANCH  13  15
ATOM     15  CA  TYR A   7      10.581 -10.477   6.935  0.00  0.00    +0.153 C 
BRANCH  15  16
ATOM     16  C   TYR A   7      10.795 -10.577   8.443  0.00  0.00    +0.241 C 
ATOM     17  N   LEU A   8       9.867 -10.050   9.239  0.00  0.00    -0.298 N 
ATOM     18  H   LEU A   8       9.053  -9.557   8.821  0.00  0.00    +0.150 HD
ATOM     19  O   TYR A   7      11.789 -11.155   8.876  0.00  0.00    -0.273 OA
BRANCH  17  20
ATOM     20  CA  LEU A   8       9.978 -10.156  10.696  0.00  0.00    +0.137 C 
BRANCH  20  21
ATOM     21  C   LEU A   8       8.981 -11.186  11.226  0.00  0.00    +0.227 C 
ATOM     22  O   LEU A   8       8.942 -11.463  12.425  0.00  0.00    -0.286 OA
ENDBRANCH  20  21
BRANCH  20  23
ATOM     23  CB  LEU A   8       9.715  -8.808  11.377  0.00  0.00    +0.028 C 
BRANCH  23  24
ATOM     24  CG  LEU A   8      10.756  -7.699  11.210  0.00  0.00    +0.002 C 
ATOM     25  CD2 LEU A   8      10.366  -6.516  12.085  0.00  0.00    +0.000 C 
ATOM     26  CD1 LEU A   8      12.133  -8.199  11.605  0.00  0.00    +0.000 C 
ENDBRANCH  23  24
ENDBRANCH  20  23
ENDBRANCH  17  20
ENDBRANCH  15  16
BRANCH  15  27
ATOM     27  CB  TYR A   7      11.672  -9.617   6.259  0.00  0.00    +0.055 C 
BRANCH  27  28
ATOM     28  CG  TYR A   7      11.807  -8.174   6.693  0.00  0.00    -0.020 A 
ATOM     29  CD2 TYR A   7      12.312  -7.847   7.950  0.00  0.00    -0.001 A 
ATOM     30  CE2 TYR A   7      12.526  -6.521   8.319  0.00  0.00    +0.036 A 
ATOM     31  CZ  TYR A   7      12.228  -5.504   7.427  0.00  0.00    +0.134 A 
ATOM     32  CE1 TYR A   7      11.717  -5.800   6.171  0.00  0.00    +0.036 A 
ATOM     33  CD1 TYR A   7      11.509  -7.131   5.812  0.00  0.00    -0.001 A 
BRANCH  31  34
ATOM     34  OH  TYR A   7      12.450  -4.199   7.799  0.00  0.00    -0.506 OA
ATOM     35  HH  TYR A   7      11.596  -3.698   7.768  0.00  0.00    +0.292 HD
ENDBRANCH  31  34
ENDBRANCH  27  28
ENDBRANCH  15  27
ENDBRANCH  13  15
ENDBRANCH  10  11
BRANCH  10  36
ATOM     36  CB  ILE A   6       7.076 -10.549   4.414  0.00  0.00    +0.027 C 
ATOM     37  CG2 ILE A   6       7.844 -11.779   3.927  0.00  0.00    +0.002 C 
BRANCH  36  38
ATOM     38  CG1 ILE A   6       5.702 -10.477   3.742  0.00  0.00    +0.002 C 
ATOM     39  CD1 ILE A   6       5.762 -10.263   2.238  0.00  0.00    +0.000 C 
ENDBRANCH  36  38
ENDBRANCH  10  36
ENDBRANCH   8  10
ENDBRANCH   5   6
BRANCH   5  40
ATOM     40  CB  SER A   5       3.740  -7.498   7.110  0.00  0.00    +0.166 C 
BRANCH  40  41
ATOM     41  OG  SER A   5       3.117  -6.415   7.775  0.00  0.00    -0.380 OA
ATOM     42  H   SER A   5       3.754  -5.661   7.844  0.00  0.00    +0.211 HD
ENDBRANCH  40  41
ENDBRANCH   5  40
ENDBRANCH   3   5
BRANCH   1  43
ATOM     43  CA  ARG A   4       8.349  -6.187   8.066  0.00  0.00    +0.149 C 
BRANCH  43  45
ATOM     44  C   GLY A   3       8.447  -6.247   5.615  0.00  0.00    +0.243 C 
ATOM     45  N   ARG A   4       8.432  -5.555   6.751  0.00  0.00    -0.297 N 
ATOM     46  H   ARG A   4       8.482  -4.517   6.701  0.00  0.00    +0.150 HD
ATOM     47  O   GLY A   3       8.339  -7.474   5.567  0.00  0.00    -0.273 OA
BRANCH  44  48
ATOM     48  CA  GLY A   3       8.584  -5.430   4.344  0.00  0.00    +0.176 C 
BRANCH  48  50
ATOM     49  C   VAL A   2       6.983  -5.654   2.540  0.00  0.00    +0.241 C 
ATOM     50  N   GLY A   3       7.322  -5.113   3.707  0.00  0.00    -0.295 N 
ATOM     51  H   GLY A   3       6.669  -4.450   4.171  0.00  0.00    +0.150 HD
ATOM     52  O   VAL A   2       7.699  -6.447   1.923  0.00  0.00    -0.273 OA
BRANCH  49  53
ATOM     53  CA  VAL A   2       5.633  -5.233   1.977  0.00  0.00    +0.148 C 
BRANCH  53  56
ATOM     54  C   ILE A   1       5.222  -3.583   0.238  0.00  0.00    +0.238 C 
ATOM     55  O   ILE A   1       4.497  -2.914   0.979  0.00  0.00    -0.274 OA
ATOM     56  N   VAL A   2       5.799  -4.717   0.623  0.00  0.00    -0.297 N 
ATOM     57  H   VAL A   2       6.381  -5.248  -0.056  0.00  0.00    +0.150 HD
BRANCH  54  58
ATOM     58  CA  ILE A   1       5.471  -3.141  -1.198  0.00  0.00    +0.145 C 
BRANCH  58  59
ATOM     59  CB  ILE A   1       6.315  -1.844  -1.191  0.00  0.00    +0.025 C 
ATOM     60  CG2 ILE A   1       7.620  -2.069  -0.428  0.00  0.00    +0.002 C 
BRANCH  59  61
ATOM     61  CG1 ILE A   1       6.598  -1.398  -2.628  0.00  0.00    +0.002 C 
ATOM     62  CD1 ILE A   1       7.190  -0.007  -2.734  0.00  0.00    +0.000 C 
ENDBRANCH  59  61
ENDBRANCH  58  59
BRANCH  58  63
ATOM     63  N   ILE A   1       4.145  -2.907  -1.750  0.00  0.00    -0.238 NA
ATOM     64  H   ILE A   1       3.659  -2.017  -1.518  0.00  0.00    +0.142 HD
ENDBRANCH  58  63
ENDBRANCH  54  58
ENDBRANCH  53  56
BRANCH  53  65
ATOM     65  CB  VAL A   2       4.684  -6.450   2.011  0.00  0.00    +0.027 C 
ATOM     66  CG2 VAL A   2       4.521  -6.940   3.447  0.00  0.00    +0.002 C 
ATOM     67  CG1 VAL A   2       3.339  -6.079   1.416  0.00  0.00    +0.002 C 
ENDBRANCH  53  65
ENDBRANCH  49  53
ENDBRANCH  48  50
ENDBRANCH  44  48
ENDBRANCH  43  45
BRANCH  43  68
ATOM     68  CB  ARG A   4       8.234  -5.107   9.142  0.00  0.00    +0.033 C 
BRANCH  68  69
ATOM     69  CG  ARG A   4       9.524  -4.331   9.347  0.00  0.00    +0.045 C 
BRANCH  69  70
ATOM     70  CD  ARG A   4       9.299  -3.069  10.160  0.00  0.00    +0.174 C 
BRANCH  70  71
ATOM     71  NE  ARG A   4       8.576  -2.063   9.390  0.00  0.00    -0.265 N 
ATOM     72  CZ  ARG A   4       8.148  -0.904   9.879  0.00  0.00    +0.342 C 
ATOM     73  NH2 ARG A   4       8.362  -0.591  11.152  0.00  0.00    -0.292 N 
ATOM     74 HH21 ARG A   4       8.867  -1.255  11.773  0.00  0.00    +0.255 HD
ATOM     75 HH22 ARG A   4       8.024   0.318  11.528  0.00  0.00    +0.255 HD
ATOM     76  NH1 ARG A   4       7.507  -0.053   9.093  0.00  0.00    -0.292 N 
ATOM     77 HH11 ARG A   4       7.171   0.855   9.474  0.00  0.00    +0.255 HD
ATOM     78 HH12 ARG A   4       7.339  -0.292   8.095  0.00  0.00    +0.255 HD
ATOM     79  HE  ARG A   4       8.382  -2.267   8.389  0.00  0.00    +0.259 HD
ENDBRANCH  70  71
ENDBRANCH  69  70
ENDBRANCH  68  69
ENDBRANCH  43  68
ENDBRANCH   1  43
TORSDOF 32
REMARK  Name = ../refined-set-2016/3g1v/3g1v_pocket.pdb
REMARK  204 active torsions:
REMARK  status: ('A' for Active; 'I' for Inactive)
REMARK    1  A    between atoms: _1  and  _3
REMARK    2  A    between atoms: _3  and  _4
REMARK    3  A    between atoms: _3  and  _6
REMARK    4  A    between atoms: _6  and  _7
REMARK    5  A    between atoms: _10  and  _12
REMARK    6  A    between atoms: _12  and  _13
REMARK    7  A    between atoms: _12  and  _15
REMARK    8  A    between atoms: _15  and  _16
REMARK    9  A    between atoms: _19  and  _21
REMARK   10  A    between atoms: _21  and  _22
REMARK   11  A    between atoms: _25  and  _27
REMARK   12  A    between atoms: _27  and  _28
REMARK   13  A    between atoms: _27  and  _30
REMARK   14  A    between atoms: _30  and  _31
REMARK   15  A    between atoms: _31  and  _32
REMARK   16  A    between atoms: _34  and  _36
REMARK   17  A    between atoms: _36  and  _37
REMARK   18  A    between atoms: _36  and  _39
REMARK   19  A    between atoms: _39  and  _40
REMARK   20  A    between atoms: _43  and  _45
REMARK   21  A    between atoms: _45  and  _46
REMARK   22  A    between atoms: _45  and  _48
REMARK   23  A    between atoms: _48  and  _49
REMARK   24  A    between atoms: _49  and  _50
REMARK   25  A    between atoms: _50  and  _51
REMARK   26  A    between atoms: _51  and  _52
REMARK   27  A    between atoms: _56  and  _58
REMARK   28  A    between atoms: _58  and  _59
REMARK   29  A    between atoms: _58  and  _61
REMARK   30  A    between atoms: _61  and  _62
REMARK   31  A    between atoms: _65  and  _67
REMARK   32  A    between atoms: _67  and  _68
REMARK   33  A    between atoms: _70  and  _72
REMARK   34  A    between atoms: _72  and  _73
REMARK   35  A    between atoms: _72  and  _75
REMARK   36  A    between atoms: _75  and  _76
REMARK   37  A    between atoms: _81  and  _82
REMARK   38  A    between atoms: _85  and  _86
REMARK   39  A    between atoms: _91  and  _93
REMARK   40  A    between atoms: _93  and  _94
REMARK   41  A    between atoms: _93  and  _96
REMARK   42  A    between atoms: _96  and  _97
REMARK   43  A    between atoms: _100  and  _102
REMARK   44  A    between atoms: _102  and  _103
REMARK   45  A    between atoms: _105  and  _107
REMARK   46  A    between atoms: _107  and  _108
REMARK   47  A    between atoms: _107  and  _110
REMARK   48  A    between atoms: _110  and  _111
REMARK   49  A    between atoms: _111  and  _112
REMARK   50  A    between atoms: _112  and  _113
REMARK   51  A    between atoms: _113  and  _114
REMARK   52  A    between atoms: _118  and  _120
REMARK   53  A    between atoms: _120  and  _121
REMARK   54  A    between atoms: _120  and  _123
REMARK   55  A    between atoms: _123  and  _124
REMARK   56  A    between atoms: _127  and  _129
REMARK   57  A    between atoms: _129  and  _130
REMARK   58  A    between atoms: _129  and  _132
REMARK   59  A    between atoms: _135  and  _137
REMARK   60  A    between atoms: _137  and  _138
REMARK   61  A    between atoms: _137  and  _140
REMARK   62  A    between atoms: _140  and  _141
REMARK   63  A    between atoms: _146  and  _148
REMARK   64  A    between atoms: _148  and  _149
REMARK   65  A    between atoms: _148  and  _151
REMARK   66  A    between atoms: _151  and  _152
REMARK   67  A    between atoms: _155  and  _157
REMARK   68  A    between atoms: _157  and  _158
REMARK   69  A    between atoms: _157  and  _160
REMARK   70  A    between atoms: _160  and  _161
REMARK   71  A    between atoms: _164  and  _166
REMARK   72  A    between atoms: _166  and  _167
REMARK   73  A    between atoms: _166  and  _169
REMARK   74  A    between atoms: _169  and  _170
REMARK   75  A    between atoms: _170  and  _171
REMARK   76  A    between atoms: _174  and  _176
REMARK   77  A    between atoms: _176  and  _177
REMARK   78  A    between atoms: _176  and  _179
REMARK   79  A    between atoms: _179  and  _180
REMARK   80  A    between atoms: _180  and  _181
REMARK   81  A    between atoms: _183  and  _185
REMARK   82  A    between atoms: _185  and  _186
REMARK   83  A    between atoms: _185  and  _188
REMARK   84  A    between atoms: _188  and  _189
REMARK   85  A    between atoms: _191  and  _193
REMARK   86  A    between atoms: _193  and  _194
REMARK   87  A    between atoms: _193  and  _196
REMARK   88  A    between atoms: _196  and  _197
REMARK   89  A    between atoms: _202  and  _204
REMARK   90  A    between atoms: _204  and  _205
REMARK   91  A    between atoms: _208  and  _210
REMARK   92  A    between atoms: _210  and  _211
REMARK   93  A    between atoms: _210  and  _213
REMARK   94  A    between atoms: _213  and  _214
REMARK   95  A    between atoms: _217  and  _219
REMARK   96  A    between atoms: _219  and  _220
REMARK   97  A    between atoms: _219  and  _222
REMARK   98  A    between atoms: _225  and  _227
REMARK   99  A    between atoms: _227  and  _228
REMARK  100  A    between atoms: _231  and  _232
REMARK  101  A    between atoms: _237  and  _239
REMARK  102  A    between atoms: _239  and  _240
REMARK  103  A    between atoms: _239  and  _242
REMARK  104  A    between atoms: _242  and  _243
REMARK  105  A    between atoms: _245  and  _247
REMARK  106  A    between atoms: _247  and  _248
REMARK  107  A    between atoms: _247  and  _250
REMARK  108  A    between atoms: _250  and  _251
REMARK  109  A    between atoms: _254  and  _256
REMARK  110  A    between atoms: _256  and  _257
REMARK  111  A    between atoms: _256  and  _259
REMARK  112  A    between atoms: _259  and  _260
REMARK  113  A    between atoms: _260  and  _261
REMARK  114  A    between atoms: _261  and  _262
REMARK  115  A    between atoms: _271  and  _273
REMARK  116  A    between atoms: _273  and  _274
REMARK  117  A    between atoms: _273  and  _276
REMARK  118  A    between atoms: _276  and  _277
REMARK  119  A    between atoms: _280  and  _281
REMARK  120  A    between atoms: _286  and  _288
REMARK  121  A    between atoms: _288  and  _289
REMARK  122  A    between atoms: _291  and  _293
REMARK  123  A    between atoms: _293  and  _294
REMARK  124  A    between atoms: _293  and  _296
REMARK  125  A    between atoms: _299  and  _301
REMARK  126  A    between atoms: _301  and  _302
REMARK  127  A    between atoms: _304  and  _306
REMARK  128  A    between atoms: _306  and  _307
REMARK  129  A    between atoms: _310  and  _312
REMARK  130  A    between atoms: _312  and  _313
REMARK  131  A    between atoms: _312  and  _315
REMARK  132  A    between atoms: _315  and  _316
REMARK  133  A    between atoms: _316  and  _317
REMARK  134  A    between atoms: _322  and  _324
REMARK  135  A    between atoms: _324  and  _325
REMARK  136  A    between atoms: _327  and  _329
REMARK  137  A    between atoms: _329  and  _330
REMARK  138  A    between atoms: _332  and  _334
REMARK  139  A    between atoms: _334  and  _335
REMARK  140  A    between atoms: _334  and  _337
REMARK  141  A    between atoms: _337  and  _338
REMARK  142  A    between atoms: _341  and  _343
REMARK  143  A    between atoms: _343  and  _344
REMARK  144  A    between atoms: _343  and  _346
REMARK  145  A    between atoms: _349  and  _351
REMARK  146  A    between atoms: _351  and  _352
REMARK  147  A    between atoms: _354  and  _356
REMARK  148  A    between atoms: _356  and  _357
REMARK  149  A    between atoms: _356  and  _359
REMARK  150  A    between atoms: _359  and  _360
REMARK  151  A    between atoms: _360  and  _361
REMARK  152  A    between atoms: _361  and  _362
REMARK  153  A    between atoms: _371  and  _373
REMARK  154  A    between atoms: _373  and  _374
REMARK  155  A    between atoms: _373  and  _376
REMARK  156  A    between atoms: _376  and  _377
REMARK  157  A    between atoms: _379  and  _381
REMARK  158  A    between atoms: _381  and  _382
REMARK  159  A    between atoms: _381  and  _384
REMARK  160  A    between atoms: _384  and  _385
REMARK  161  A    between atoms: _388  and  _390
REMARK  162  A    between atoms: _390  and  _391
REMARK  163  A    between atoms: _390  and  _393
REMARK  164  A    between atoms: _393  and  _394
REMARK  165  A    between atoms: _399  and  _400
REMARK  166  A    between atoms: _402  and  _404
REMARK  167  A    between atoms: _404  and  _405
REMARK  168  A    between atoms: _404  and  _407
REMARK  169  A    between atoms: _407  and  _408
REMARK  170  A    between atoms: _411  and  _413
REMARK  171  A    between atoms: _413  and  _414
REMARK  172  A    between atoms: _417  and  _419
REMARK  173  A    between atoms: _419  and  _420
REMARK  174  A    between atoms: _419  and  _422
REMARK  175  A    between atoms: _422  and  _423
REMARK  176  A    between atoms: _426  and  _428
REMARK  177  A    between atoms: _428  and  _429
REMARK  178  A    between atoms: _428  and  _431
REMARK  179  A    between atoms: _431  and  _432
REMARK  180  A    between atoms: _436  and  _437
REMARK  181  A    between atoms: _442  and  _444
REMARK  182  A    between atoms: _444  and  _445
REMARK  183  A    between atoms: _444  and  _447
REMARK  184  A    between atoms: _447  and  _448
REMARK  185  A    between atoms: _448  and  _449
REMARK  186  A    between atoms: _452  and  _454
REMARK  187  A    between atoms: _454  and  _455
REMARK  188  A    between atoms: _454  and  _457
REMARK  189  A    between atoms: _457  and  _458
REMARK  190  A    between atoms: _461  and  _463
REMARK  191  A    between atoms: _463  and  _464
REMARK  192  A    between atoms: _463  and  _466
REMARK  193  A    between atoms: _466  and  _467
REMARK  194  A    between atoms: _472  and  _474
REMARK  195  A    between atoms: _474  and  _475
REMARK  196  A    between atoms: _474  and  _477
REMARK  197  A    between atoms: _477  and  _478
REMARK  198  A    between atoms: _478  and  _479
REMARK  199  A    between atoms: _479  and  _480
REMARK  200  A    between atoms: _480  and  _481
REMARK  201  A    between atoms: _485  and  _487
REMARK  202  A    between atoms: _487  and  _488
REMARK  203  A    between atoms: _487  and  _490
REMARK  204  A    between atoms: _490  and  _491
REMARK                            x       y       z     vdW  Elec       q    Type
REMARK                         _______ _______ _______ _____ _____    ______ ____
ROOT
ATOM      1  C   PRO A   4      12.222   5.621  11.033  0.00  0.00    +0.241 C 
ATOM      2  O   PRO A   4      13.414   5.648  11.341  0.00  0.00    -0.273 OA
ATOM      3  N   GLU A   5      11.551   4.486  10.875  0.00  0.00    -0.297 N 
ATOM      4  H   GLU A   5      10.550   4.517  10.595  0.00  0.00    +0.150 HD
ENDROOT
BRANCH   1   7
ATOM      5  C   ILE A   3      11.259   6.714   8.390  0.00  0.00    +0.244 C 
ATOM      6  N   PRO A   4      10.691   7.030   9.561  0.00  0.00    -0.272 N 
ATOM      7  CA  PRO A   4      11.448   6.918  10.813  0.00  0.00    +0.152 C 
ATOM      8  CB  PRO A   4      10.378   7.148  11.876  0.00  0.00    +0.031 C 
ATOM      9  CG  PRO A   4       9.469   8.137  11.209  0.00  0.00    +0.024 C 
ATOM     10  CD  PRO A   4       9.341   7.568   9.810  0.00  0.00    +0.094 C 
ATOM     11  O   ILE A   3      12.420   6.310   8.326  0.00  0.00    -0.273 OA
BRANCH   5  12
ATOM     12  CA  ILE A   3      10.413   6.865   7.124  0.00  0.00    +0.149 C 
BRANCH  12  15
ATOM     13  C   ASP A   2      12.097   7.940   5.742  0.00  0.00    +0.241 C 
ATOM     14  O   ASP A   2      12.044   8.977   6.416  0.00  0.00    -0.273 OA
ATOM     15  N   ILE A   3      11.331   6.879   5.990  0.00  0.00    -0.297 N 
ATOM     16  H   ILE A   3      11.388   6.049   5.366  0.00  0.00    +0.150 HD
BRANCH  13  17
ATOM     17  CA  ASP A   2      13.051   7.833   4.551  0.00  0.00    +0.160 C 
BRANCH  17  19
ATOM     18  C   ALA A   1      13.922   9.868   3.538  0.00  0.00    +0.238 C 
ATOM     19  N   ASP A   2      13.932   8.996   4.537  0.00  0.00    -0.297 N 
ATOM     20  H   ASP A   2      14.586   9.145   5.332  0.00  0.00    +0.150 HD
ATOM     21  O   ALA A   1      13.151   9.781   2.576  0.00  0.00    -0.274 OA
BRANCH  18  22
ATOM     22  CA  ALA A   1      14.916  11.018   3.649  0.00  0.00    +0.145 C 
ATOM     23  CB  ALA A   1      14.937  11.813   2.347  0.00  0.00    +0.028 C 
BRANCH  22  24
ATOM     24  N   ALA A   1      16.268  10.558   3.957  0.00  0.00    -0.238 NA
ATOM     25  H   ALA A   1      16.580   9.630   3.605  0.00  0.00    +0.142 HD
ENDBRANCH  22  24
ENDBRANCH  18  22
ENDBRANCH  17  19
BRANCH  17  26
ATOM     26  CB  ASP A   2      13.911   6.567   4.668  0.00  0.00    +0.143 C 
BRANCH  26  27
ATOM     27  CG  ASP A   2      13.307   5.368   3.959  0.00  0.00    +0.367 C 
ATOM     28  OD2 ASP A   2      12.096   5.109   4.109  0.00  0.00    -0.246 OA
ATOM     29  OD1 ASP A   2      14.062   4.667   3.252  0.00  0.00    -0.246 OA
ENDBRANCH  26  27
ENDBRANCH  17  26
ENDBRANCH  13  17
ENDBRANCH  12  15
BRANCH  12  30
ATOM     30  CB  ILE A   3       9.396   5.698   7.023  0.00  0.00    +0.027 C 
ATOM     31  CG2 ILE A   3       8.618   5.804   5.718  0.00  0.00    +0.002 C 
BRANCH  30  32
ATOM     32  CG1 ILE A   3      10.117   4.350   7.100  0.00  0.00    +0.002 C 
ATOM     33  CD1 ILE A   3       9.172   3.151   7.121  0.00  0.00    +0.000 C 
ENDBRANCH  30  32
ENDBRANCH  12  30
ENDBRANCH   5  12
ENDBRANCH   1   7
BRANCH   3  34
ATOM     34  CA  GLU A   5      12.197   3.196  11.089  0.00  0.00    +0.149 C 
BRANCH  34  35
ATOM     35  C   GLU A   5      13.428   2.976  10.216  0.00  0.00    +0.241 C 
ATOM     36  O   GLU A   5      14.470   2.530  10.698  0.00  0.00    -0.273 OA
ATOM     37  N   THR A   6      13.312   3.285   8.930  0.00  0.00    -0.295 N 
ATOM     38  H   THR A   6      12.412   3.659   8.568  0.00  0.00    +0.150 HD
BRANCH  37  39
ATOM     39  CA  THR A   6      14.434   3.104   8.024  0.00  0.00    +0.176 C 
BRANCH  39  40
ATOM     40  C   THR A   6      15.527   4.140   8.291  0.00  0.00    +0.243 C 
ATOM     41  N   ASN A   7      15.131   5.363   8.635  0.00  0.00    -0.298 N 
ATOM     42  H   ASN A   7      14.115   5.580   8.685  0.00  0.00    +0.150 HD
ATOM     43  O   THR A   6      16.714   3.835   8.194  0.00  0.00    -0.273 OA
BRANCH  41  44
ATOM     44  CA  ASN A   7      16.111   6.405   8.944  0.00  0.00    +0.146 C 
BRANCH  44  45
ATOM     45  C   ASN A   7      16.993   5.944  10.101  0.00  0.00    +0.227 C 
ATOM     46  O   ASN A   7      18.206   6.160  10.096  0.00  0.00    -0.286 OA
ENDBRANCH  44  45
BRANCH  44  47
ATOM     47  CB  ASN A   7      15.408   7.712   9.332  0.00  0.00    +0.112 C 
BRANCH  47  48
ATOM     48  CG  ASN A   7      15.059   8.569   8.132  0.00  0.00    +0.222 C 
ATOM     49  ND2 ASN A   7      14.707   9.826   8.386  0.00  0.00    -0.329 N 
ATOM     50 HD21 ASN A   7      14.685  10.172   9.367  0.00  0.00    +0.145 HD
ATOM     51 HD22 ASN A   7      14.454  10.463   7.604  0.00  0.00    +0.145 HD
ATOM     52  OD1 ASN A   7      15.102   8.109   6.991  0.00  0.00    -0.275 OA
ENDBRANCH  47  48
ENDBRANCH  44  47
ENDBRANCH  41  44
ENDBRANCH  39  40
BRANCH  39  53
ATOM     53  CB  THR A   6      13.965   3.167   6.567  0.00  0.00    +0.137 C 
ATOM     54  CG2 THR A   6      15.134   2.969   5.619  0.00  0.00    +0.034 C 
BRANCH  53  55
ATOM     55  OG1 THR A   6      13.005   2.126   6.344  0.00  0.00    -0.382 OA
ATOM     56  HG1 THR A   6      12.696   2.159   5.404  0.00  0.00    +0.210 HD
ENDBRANCH  53  55
ENDBRANCH  39  53
ENDBRANCH  37  39
ENDBRANCH  34  35
BRANCH  34  57
ATOM     57  CB  GLU A   5      11.195   2.061  10.858  0.00  0.00    +0.041 C 
BRANCH  57  58
ATOM     58  CG  GLU A   5      11.787   0.671  11.045  0.00  0.00    +0.116 C 
BRANCH  58  59
ATOM     59  CD  GLU A   5      12.394   0.475  12.421  0.00  0.00    +0.365 C 
ATOM     60  OE2 GLU A   5      11.667   0.648  13.423  0.00  0.00    -0.246 OA
ATOM     61  OE1 GLU A   5      13.598   0.147  12.502  0.00  0.00    -0.246 OA
ENDBRANCH  58  59
ENDBRANCH  57  58
ENDBRANCH  34  57
ENDBRANCH   3  34
TORSDOF 24
REMARK  Name = ../refined-set-2016/3g1v/3g1v_pocket.pdb
REMARK  204 active torsions:
REMARK  status: ('A' for Active; 'I' for Inactive)
REMARK    1  A    between atoms: _1  and  _3
REMARK    2  A    between atoms: _3  and  _4
REMARK    3  A    between atoms: _3  and  _6
REMARK    4  A    between atoms: _6  and  _7
REMARK    5  A    between atoms: _10  and  _12
REMARK    6  A    between atoms: _12  and  _13
REMARK    7  A    between atoms: _12  and  _15
REMARK    8  A    between atoms: _15  and  _16
REMARK    9  A    between atoms: _19  and  _21
REMARK   10  A    between atoms: _21  and  _22
REMARK   11  A    between atoms: _25  and  _27
REMARK   12  A    between atoms: _27  and  _28
REMARK   13  A    between atoms: _27  and  _30
REMARK   14  A    between atoms: _30  and  _31
REMARK   15  A    between atoms: _31  and  _32
REMARK   16  A    between atoms: _34  and  _36
REMARK   17  A    between atoms: _36  and  _37
REMARK   18  A    between atoms: _36  and  _39
REMARK   19  A    between atoms: _39  and  _40
REMARK   20  A    between atoms: _43  and  _45
REMARK   21  A    between atoms: _45  and  _46
REMARK   22  A    between atoms: _45  and  _48
REMARK   23  A    between atoms: _48  and  _49
REMARK   24  A    between atoms: _49  and  _50
REMARK   25  A    between atoms: _50  and  _51
REMARK   26  A    between atoms: _51  and  _52
REMARK   27  A    between atoms: _56  and  _58
REMARK   28  A    between atoms: _58  and  _59
REMARK   29  A    between atoms: _58  and  _61
REMARK   30  A    between atoms: _61  and  _62
REMARK   31  A    between atoms: _65  and  _67
REMARK   32  A    between atoms: _67  and  _68
REMARK   33  A    between atoms: _70  and  _72
REMARK   34  A    between atoms: _72  and  _73
REMARK   35  A    between atoms: _72  and  _75
REMARK   36  A    between atoms: _75  and  _76
REMARK   37  A    between atoms: _81  and  _82
REMARK   38  A    between atoms: _85  and  _86
REMARK   39  A    between atoms: _91  and  _93
REMARK   40  A    between atoms: _93  and  _94
REMARK   41  A    between atoms: _93  and  _96
REMARK   42  A    between atoms: _96  and  _97
REMARK   43  A    between atoms: _100  and  _102
REMARK   44  A    between atoms: _102  and  _103
REMARK   45  A    between atoms: _105  and  _107
REMARK   46  A    between atoms: _107  and  _108
REMARK   47  A    between atoms: _107  and  _110
REMARK   48  A    between atoms: _110  and  _111
REMARK   49  A    between atoms: _111  and  _112
REMARK   50  A    between atoms: _112  and  _113
REMARK   51  A    between atoms: _113  and  _114
REMARK   52  A    between atoms: _118  and  _120
REMARK   53  A    between atoms: _120  and  _121
REMARK   54  A    between atoms: _120  and  _123
REMARK   55  A    between atoms: _123  and  _124
REMARK   56  A    between atoms: _127  and  _129
REMARK   57  A    between atoms: _129  and  _130
REMARK   58  A    between atoms: _129  and  _132
REMARK   59  A    between atoms: _135  and  _137
REMARK   60  A    between atoms: _137  and  _138
REMARK   61  A    between atoms: _137  and  _140
REMARK   62  A    between atoms: _140  and  _141
REMARK   63  A    between atoms: _146  and  _148
REMARK   64  A    between atoms: _148  and  _149
REMARK   65  A    between atoms: _148  and  _151
REMARK   66  A    between atoms: _151  and  _152
REMARK   67  A    between atoms: _155  and  _157
REMARK   68  A    between atoms: _157  and  _158
REMARK   69  A    between atoms: _157  and  _160
REMARK   70  A    between atoms: _160  and  _161
REMARK   71  A    between atoms: _164  and  _166
REMARK   72  A    between atoms: _166  and  _167
REMARK   73  A    between atoms: _166  and  _169
REMARK   74  A    between atoms: _169  and  _170
REMARK   75  A    between atoms: _170  and  _171
REMARK   76  A    between atoms: _174  and  _176
REMARK   77  A    between atoms: _176  and  _177
REMARK   78  A    between atoms: _176  and  _179
REMARK   79  A    between atoms: _179  and  _180
REMARK   80  A    between atoms: _180  and  _181
REMARK   81  A    between atoms: _183  and  _185
REMARK   82  A    between atoms: _185  and  _186
REMARK   83  A    between atoms: _185  and  _188
REMARK   84  A    between atoms: _188  and  _189
REMARK   85  A    between atoms: _191  and  _193
REMARK   86  A    between atoms: _193  and  _194
REMARK   87  A    between atoms: _193  and  _196
REMARK   88  A    between atoms: _196  and  _197
REMARK   89  A    between atoms: _202  and  _204
REMARK   90  A    between atoms: _204  and  _205
REMARK   91  A    between atoms: _208  and  _210
REMARK   92  A    between atoms: _210  and  _211
REMARK   93  A    between atoms: _210  and  _213
REMARK   94  A    between atoms: _213  and  _214
REMARK   95  A    between atoms: _217  and  _219
REMARK   96  A    between atoms: _219  and  _220
REMARK   97  A    between atoms: _219  and  _222
REMARK   98  A    between atoms: _225  and  _227
REMARK   99  A    between atoms: _227  and  _228
REMARK  100  A    between atoms: _231  and  _232
REMARK  101  A    between atoms: _237  and  _239
REMARK  102  A    between atoms: _239  and  _240
REMARK  103  A    between atoms: _239  and  _242
REMARK  104  A    between atoms: _242  and  _243
REMARK  105  A    between atoms: _245  and  _247
REMARK  106  A    between atoms: _247  and  _248
REMARK  107  A    between atoms: _247  and  _250
REMARK  108  A    between atoms: _250  and  _251
REMARK  109  A    between atoms: _254  and  _256
REMARK  110  A    between atoms: _256  and  _257
REMARK  111  A    between atoms: _256  and  _259
REMARK  112  A    between atoms: _259  and  _260
REMARK  113  A    between atoms: _260  and  _261
REMARK  114  A    between atoms: _261  and  _262
REMARK  115  A    between atoms: _271  and  _273
REMARK  116  A    between atoms: _273  and  _274
REMARK  117  A    between atoms: _273  and  _276
REMARK  118  A    between atoms: _276  and  _277
REMARK  119  A    between atoms: _280  and  _281
REMARK  120  A    between atoms: _286  and  _288
REMARK  121  A    between atoms: _288  and  _289
REMARK  122  A    between atoms: _291  and  _293
REMARK  123  A    between atoms: _293  and  _294
REMARK  124  A    between atoms: _293  and  _296
REMARK  125  A    between atoms: _299  and  _301
REMARK  126  A    between atoms: _301  and  _302
REMARK  127  A    between atoms: _304  and  _306
REMARK  128  A    between atoms: _306  and  _307
REMARK  129  A    between atoms: _310  and  _312
REMARK  130  A    between atoms: _312  and  _313
REMARK  131  A    between atoms: _312  and  _315
REMARK  132  A    between atoms: _315  and  _316
REMARK  133  A    between atoms: _316  and  _317
REMARK  134  A    between atoms: _322  and  _324
REMARK  135  A    between atoms: _324  and  _325
REMARK  136  A    between atoms: _327  and  _329
REMARK  137  A    between atoms: _329  and  _330
REMARK  138  A    between atoms: _332  and  _334
REMARK  139  A    between atoms: _334  and  _335
REMARK  140  A    between atoms: _334  and  _337
REMARK  141  A    between atoms: _337  and  _338
REMARK  142  A    between atoms: _341  and  _343
REMARK  143  A    between atoms: _343  and  _344
REMARK  144  A    between atoms: _343  and  _346
REMARK  145  A    between atoms: _349  and  _351
REMARK  146  A    between atoms: _351  and  _352
REMARK  147  A    between atoms: _354  and  _356
REMARK  148  A    between atoms: _356  and  _357
REMARK  149  A    between atoms: _356  and  _359
REMARK  150  A    between atoms: _359  and  _360
REMARK  151  A    between atoms: _360  and  _361
REMARK  152  A    between atoms: _361  and  _362
REMARK  153  A    between atoms: _371  and  _373
REMARK  154  A    between atoms: _373  and  _374
REMARK  155  A    between atoms: _373  and  _376
REMARK  156  A    between atoms: _376  and  _377
REMARK  157  A    between atoms: _379  and  _381
REMARK  158  A    between atoms: _381  and  _382
REMARK  159  A    between atoms: _381  and  _384
REMARK  160  A    between atoms: _384  and  _385
REMARK  161  A    between atoms: _388  and  _390
REMARK  162  A    between atoms: _390  and  _391
REMARK  163  A    between atoms: _390  and  _393
REMARK  164  A    between atoms: _393  and  _394
REMARK  165  A    between atoms: _399  and  _400
REMARK  166  A    between atoms: _402  and  _404
REMARK  167  A    between atoms: _404  and  _405
REMARK  168  A    between atoms: _404  and  _407
REMARK  169  A    between atoms: _407  and  _408
REMARK  170  A    between atoms: _411  and  _413
REMARK  171  A    between atoms: _413  and  _414
REMARK  172  A    between atoms: _417  and  _419
REMARK  173  A    between atoms: _419  and  _420
REMARK  174  A    between atoms: _419  and  _422
REMARK  175  A    between atoms: _422  and  _423
REMARK  176  A    between atoms: _426  and  _428
REMARK  177  A    between atoms: _428  and  _429
REMARK  178  A    between atoms: _428  and  _431
REMARK  179  A    between atoms: _431  and  _432
REMARK  180  A    between atoms: _436  and  _437
REMARK  181  A    between atoms: _442  and  _444
REMARK  182  A    between atoms: _444  and  _445
REMARK  183  A    between atoms: _444  and  _447
REMARK  184  A    between atoms: _447  and  _448
REMARK  185  A    between atoms: _448  and  _449
REMARK  186  A    between atoms: _452  and  _454
REMARK  187  A    between atoms: _454  and  _455
REMARK  188  A    between atoms: _454  and  _457
REMARK  189  A    between atoms: _457  and  _458
REMARK  190  A    between atoms: _461  and  _463
REMARK  191  A    between atoms: _463  and  _464
REMARK  192  A    between atoms: _463  and  _466
REMARK  193  A    between atoms: _466  and  _467
REMARK  194  A    between atoms: _472  and  _474
REMARK  195  A    between atoms: _474  and  _475
REMARK  196  A    between atoms: _474  and  _477
REMARK  197  A    between atoms: _477  and  _478
REMARK  198  A    between atoms: _478  and  _479
REMARK  199  A    between atoms: _479  and  _480
REMARK  200  A    between atoms: _480  and  _481
REMARK  201  A    between atoms: _485  and  _487
REMARK  202  A    between atoms: _487  and  _488
REMARK  203  A    between atoms: _487  and  _490
REMARK  204  A    between atoms: _490  and  _491
REMARK                            x       y       z     vdW  Elec       q    Type
REMARK                         _______ _______ _______ _____ _____    ______ ____
ROOT
ATOM      1  CA  LYS A   1      18.695   1.879  10.411  0.00  0.00    +0.145 C 
ENDROOT
BRANCH   1   2
ATOM      2  C   LYS A   1      19.851   2.488   9.622  0.00  0.00    +0.238 C 
ATOM      3  O   LYS A   1      21.002   2.078   9.782  0.00  0.00    -0.274 OA
ATOM      4  N   ILE A   2      19.550   3.463   8.769  0.00  0.00    -0.298 N 
ATOM      5  H   ILE A   2      18.563   3.775   8.671  0.00  0.00    +0.150 HD
BRANCH   4   6
ATOM      6  CA  ILE A   2      20.591   4.098   7.970  0.00  0.00    +0.137 C 
BRANCH   6   7
ATOM      7  C   ILE A   2      21.583   4.818   8.878  0.00  0.00    +0.227 C 
ATOM      8  O   ILE A   2      22.797   4.705   8.695  0.00  0.00    -0.286 OA
ENDBRANCH   6   7
BRANCH   6   9
ATOM      9  CB  ILE A   2      19.980   5.088   6.950  0.00  0.00    +0.026 C 
ATOM     10  CG2 ILE A   2      21.080   5.891   6.268  0.00  0.00    +0.002 C 
BRANCH   9  11
ATOM     11  CG1 ILE A   2      19.159   4.312   5.912  0.00  0.00    +0.002 C 
ATOM     12  CD1 ILE A   2      18.339   5.188   4.982  0.00  0.00    +0.000 C 
ENDBRANCH   9  11
ENDBRANCH   6   9
ENDBRANCH   4   6
ENDBRANCH   1   2
BRANCH   1  13
ATOM     13  N   LYS A   1      17.781   2.897  10.921  0.00  0.00    -0.238 NA
ATOM     14  H   LYS A   1      16.798   2.910  10.583  0.00  0.00    +0.142 HD
ENDBRANCH   1  13
BRANCH   1  15
ATOM     15  CB  LYS A   1      17.948   0.882   9.520  0.00  0.00    +0.026 C 
BRANCH  15  16
ATOM     16  CG  LYS A   1      16.960  -0.006  10.260  0.00  0.00    -0.000 C 
BRANCH  16  17
ATOM     17  CD  LYS A   1      16.293  -0.979   9.307  0.00  0.00    -0.024 C 
BRANCH  17  18
ATOM     18  CE  LYS A   1      15.359  -1.916  10.049  0.00  0.00    -0.086 C 
BRANCH  18  19
ATOM     19  NZ  LYS A   1      14.696  -2.867   9.117  0.00  0.00    +0.380 N 
ATOM     20  HZ1 LYS A   1      14.064  -3.494   9.655  0.00  0.00    -0.089 HD
ATOM     21  HZ2 LYS A   1      15.419  -3.435   8.631  0.00  0.00    -0.089 HD
ATOM     22  HZ3 LYS A   1      14.143  -2.334   8.416  0.00  0.00    -0.089 HD
ENDBRANCH  18  19
ENDBRANCH  17  18
ENDBRANCH  16  17
ENDBRANCH  15  16
ENDBRANCH   1  15
TORSDOF 11
REMARK  Name = ../refined-set-2016/3g1v/3g1v_pocket.pdb
REMARK  204 active torsions:
REMARK  status: ('A' for Active; 'I' for Inactive)
REMARK    1  A    between atoms: _1  and  _3
REMARK    2  A    between atoms: _3  and  _4
REMARK    3  A    between atoms: _3  and  _6
REMARK    4  A    between atoms: _6  and  _7
REMARK    5  A    between atoms: _10  and  _12
REMARK    6  A    between atoms: _12  and  _13
REMARK    7  A    between atoms: _12  and  _15
REMARK    8  A    between atoms: _15  and  _16
REMARK    9  A    between atoms: _19  and  _21
REMARK   10  A    between atoms: _21  and  _22
REMARK   11  A    between atoms: _25  and  _27
REMARK   12  A    between atoms: _27  and  _28
REMARK   13  A    between atoms: _27  and  _30
REMARK   14  A    between atoms: _30  and  _31
REMARK   15  A    between atoms: _31  and  _32
REMARK   16  A    between atoms: _34  and  _36
REMARK   17  A    between atoms: _36  and  _37
REMARK   18  A    between atoms: _36  and  _39
REMARK   19  A    between atoms: _39  and  _40
REMARK   20  A    between atoms: _43  and  _45
REMARK   21  A    between atoms: _45  and  _46
REMARK   22  A    between atoms: _45  and  _48
REMARK   23  A    between atoms: _48  and  _49
REMARK   24  A    between atoms: _49  and  _50
REMARK   25  A    between atoms: _50  and  _51
REMARK   26  A    between atoms: _51  and  _52
REMARK   27  A    between atoms: _56  and  _58
REMARK   28  A    between atoms: _58  and  _59
REMARK   29  A    between atoms: _58  and  _61
REMARK   30  A    between atoms: _61  and  _62
REMARK   31  A    between atoms: _65  and  _67
REMARK   32  A    between atoms: _67  and  _68
REMARK   33  A    between atoms: _70  and  _72
REMARK   34  A    between atoms: _72  and  _73
REMARK   35  A    between atoms: _72  and  _75
REMARK   36  A    between atoms: _75  and  _76
REMARK   37  A    between atoms: _81  and  _82
REMARK   38  A    between atoms: _85  and  _86
REMARK   39  A    between atoms: _91  and  _93
REMARK   40  A    between atoms: _93  and  _94
REMARK   41  A    between atoms: _93  and  _96
REMARK   42  A    between atoms: _96  and  _97
REMARK   43  A    between atoms: _100  and  _102
REMARK   44  A    between atoms: _102  and  _103
REMARK   45  A    between atoms: _105  and  _107
REMARK   46  A    between atoms: _107  and  _108
REMARK   47  A    between atoms: _107  and  _110
REMARK   48  A    between atoms: _110  and  _111
REMARK   49  A    between atoms: _111  and  _112
REMARK   50  A    between atoms: _112  and  _113
REMARK   51  A    between atoms: _113  and  _114
REMARK   52  A    between atoms: _118  and  _120
REMARK   53  A    between atoms: _120  and  _121
REMARK   54  A    between atoms: _120  and  _123
REMARK   55  A    between atoms: _123  and  _124
REMARK   56  A    between atoms: _127  and  _129
REMARK   57  A    between atoms: _129  and  _130
REMARK   58  A    between atoms: _129  and  _132
REMARK   59  A    between atoms: _135  and  _137
REMARK   60  A    between atoms: _137  and  _138
REMARK   61  A    between atoms: _137  and  _140
REMARK   62  A    between atoms: _140  and  _141
REMARK   63  A    between atoms: _146  and  _148
REMARK   64  A    between atoms: _148  and  _149
REMARK   65  A    between atoms: _148  and  _151
REMARK   66  A    between atoms: _151  and  _152
REMARK   67  A    between atoms: _155  and  _157
REMARK   68  A    between atoms: _157  and  _158
REMARK   69  A    between atoms: _157  and  _160
REMARK   70  A    between atoms: _160  and  _161
REMARK   71  A    between atoms: _164  and  _166
REMARK   72  A    between atoms: _166  and  _167
REMARK   73  A    between atoms: _166  and  _169
REMARK   74  A    between atoms: _169  and  _170
REMARK   75  A    between atoms: _170  and  _171
REMARK   76  A    between atoms: _174  and  _176
REMARK   77  A    between atoms: _176  and  _177
REMARK   78  A    between atoms: _176  and  _179
REMARK   79  A    between atoms: _179  and  _180
REMARK   80  A    between atoms: _180  and  _181
REMARK   81  A    between atoms: _183  and  _185
REMARK   82  A    between atoms: _185  and  _186
REMARK   83  A    between atoms: _185  and  _188
REMARK   84  A    between atoms: _188  and  _189
REMARK   85  A    between atoms: _191  and  _193
REMARK   86  A    between atoms: _193  and  _194
REMARK   87  A    between atoms: _193  and  _196
REMARK   88  A    between atoms: _196  and  _197
REMARK   89  A    between atoms: _202  and  _204
REMARK   90  A    between atoms: _204  and  _205
REMARK   91  A    between atoms: _208  and  _210
REMARK   92  A    between atoms: _210  and  _211
REMARK   93  A    between atoms: _210  and  _213
REMARK   94  A    between atoms: _213  and  _214
REMARK   95  A    between atoms: _217  and  _219
REMARK   96  A    between atoms: _219  and  _220
REMARK   97  A    between atoms: _219  and  _222
REMARK   98  A    between atoms: _225  and  _227
REMARK   99  A    between atoms: _227  and  _228
REMARK  100  A    between atoms: _231  and  _232
REMARK  101  A    between atoms: _237  and  _239
REMARK  102  A    between atoms: _239  and  _240
REMARK  103  A    between atoms: _239  and  _242
REMARK  104  A    between atoms: _242  and  _243
REMARK  105  A    between atoms: _245  and  _247
REMARK  106  A    between atoms: _247  and  _248
REMARK  107  A    between atoms: _247  and  _250
REMARK  108  A    between atoms: _250  and  _251
REMARK  109  A    between atoms: _254  and  _256
REMARK  110  A    between atoms: _256  and  _257
REMARK  111  A    between atoms: _256  and  _259
REMARK  112  A    between atoms: _259  and  _260
REMARK  113  A    between atoms: _260  and  _261
REMARK  114  A    between atoms: _261  and  _262
REMARK  115  A    between atoms: _271  and  _273
REMARK  116  A    between atoms: _273  and  _274
REMARK  117  A    between atoms: _273  and  _276
REMARK  118  A    between atoms: _276  and  _277
REMARK  119  A    between atoms: _280  and  _281
REMARK  120  A    between atoms: _286  and  _288
REMARK  121  A    between atoms: _288  and  _289
REMARK  122  A    between atoms: _291  and  _293
REMARK  123  A    between atoms: _293  and  _294
REMARK  124  A    between atoms: _293  and  _296
REMARK  125  A    between atoms: _299  and  _301
REMARK  126  A    between atoms: _301  and  _302
REMARK  127  A    between atoms: _304  and  _306
REMARK  128  A    between atoms: _306  and  _307
REMARK  129  A    between atoms: _310  and  _312
REMARK  130  A    between atoms: _312  and  _313
REMARK  131  A    between atoms: _312  and  _315
REMARK  132  A    between atoms: _315  and  _316
REMARK  133  A    between atoms: _316  and  _317
REMARK  134  A    between atoms: _322  and  _324
REMARK  135  A    between atoms: _324  and  _325
REMARK  136  A    between atoms: _327  and  _329
REMARK  137  A    between atoms: _329  and  _330
REMARK  138  A    between atoms: _332  and  _334
REMARK  139  A    between atoms: _334  and  _335
REMARK  140  A    between atoms: _334  and  _337
REMARK  141  A    between atoms: _337  and  _338
REMARK  142  A    between atoms: _341  and  _343
REMARK  143  A    between atoms: _343  and  _344
REMARK  144  A    between atoms: _343  and  _346
REMARK  145  A    between atoms: _349  and  _351
REMARK  146  A    between atoms: _351  and  _352
REMARK  147  A    between atoms: _354  and  _356
REMARK  148  A    between atoms: _356  and  _357
REMARK  149  A    between atoms: _356  and  _359
REMARK  150  A    between atoms: _359  and  _360
REMARK  151  A    between atoms: _360  and  _361
REMARK  152  A    between atoms: _361  and  _362
REMARK  153  A    between atoms: _371  and  _373
REMARK  154  A    between atoms: _373  and  _374
REMARK  155  A    between atoms: _373  and  _376
REMARK  156  A    between atoms: _376  and  _377
REMARK  157  A    between atoms: _379  and  _381
REMARK  158  A    between atoms: _381  and  _382
REMARK  159  A    between atoms: _381  and  _384
REMARK  160  A    between atoms: _384  and  _385
REMARK  161  A    between atoms: _388  and  _390
REMARK  162  A    between atoms: _390  and  _391
REMARK  163  A    between atoms: _390  and  _393
REMARK  164  A    between atoms: _393  and  _394
REMARK  165  A    between atoms: _399  and  _400
REMARK  166  A    between atoms: _402  and  _404
REMARK  167  A    between atoms: _404  and  _405
REMARK  168  A    between atoms: _404  and  _407
REMARK  169  A    between atoms: _407  and  _408
REMARK  170  A    between atoms: _411  and  _413
REMARK  171  A    between atoms: _413  and  _414
REMARK  172  A    between atoms: _417  and  _419
REMARK  173  A    between atoms: _419  and  _420
REMARK  174  A    between atoms: _419  and  _422
REMARK  175  A    between atoms: _422  and  _423
REMARK  176  A    between atoms: _426  and  _428
REMARK  177  A    between atoms: _428  and  _429
REMARK  178  A    between atoms: _428  and  _431
REMARK  179  A    between atoms: _431  and  _432
REMARK  180  A    between atoms: _436  and  _437
REMARK  181  A    between atoms: _442  and  _444
REMARK  182  A    between atoms: _444  and  _445
REMARK  183  A    between atoms: _444  and  _447
REMARK  184  A    between atoms: _447  and  _448
REMARK  185  A    between atoms: _448  and  _449
REMARK  186  A    between atoms: _452  and  _454
REMARK  187  A    between atoms: _454  and  _455
REMARK  188  A    between atoms: _454  and  _457
REMARK  189  A    between atoms: _457  and  _458
REMARK  190  A    between atoms: _461  and  _463
REMARK  191  A    between atoms: _463  and  _464
REMARK  192  A    between atoms: _463  and  _466
REMARK  193  A    between atoms: _466  and  _467
REMARK  194  A    between atoms: _472  and  _474
REMARK  195  A    between atoms: _474  and  _475
REMARK  196  A    between atoms: _474  and  _477
REMARK  197  A    between atoms: _477  and  _478
REMARK  198  A    between atoms: _478  and  _479
REMARK  199  A    between atoms: _479  and  _480
REMARK  200  A    between atoms: _480  and  _481
REMARK  201  A    between atoms: _485  and  _487
REMARK  202  A    between atoms: _487  and  _488
REMARK  203  A    between atoms: _487  and  _490
REMARK  204  A    between atoms: _490  and  _491
REMARK                            x       y       z     vdW  Elec       q    Type
REMARK                         _______ _______ _______ _____ _____    ______ ____
ROOT
ATOM      1  O   HOH     1      17.307  -2.616   2.450  0.00  0.00    +0.000 OA
ENDROOT
TORSDOF 0
REMARK  Name = ../refined-set-2016/3g1v/3g1v_pocket.pdb
REMARK  204 active torsions:
REMARK  status: ('A' for Active; 'I' for Inactive)
REMARK    1  A    between atoms: _1  and  _3
REMARK    2  A    between atoms: _3  and  _4
REMARK    3  A    between atoms: _3  and  _6
REMARK    4  A    between atoms: _6  and  _7
REMARK    5  A    between atoms: _10  and  _12
REMARK    6  A    between atoms: _12  and  _13
REMARK    7  A    between atoms: _12  and  _15
REMARK    8  A    between atoms: _15  and  _16
REMARK    9  A    between atoms: _19  and  _21
REMARK   10  A    between atoms: _21  and  _22
REMARK   11  A    between atoms: _25  and  _27
REMARK   12  A    between atoms: _27  and  _28
REMARK   13  A    between atoms: _27  and  _30
REMARK   14  A    between atoms: _30  and  _31
REMARK   15  A    between atoms: _31  and  _32
REMARK   16  A    between atoms: _34  and  _36
REMARK   17  A    between atoms: _36  and  _37
REMARK   18  A    between atoms: _36  and  _39
REMARK   19  A    between atoms: _39  and  _40
REMARK   20  A    between atoms: _43  and  _45
REMARK   21  A    between atoms: _45  and  _46
REMARK   22  A    between atoms: _45  and  _48
REMARK   23  A    between atoms: _48  and  _49
REMARK   24  A    between atoms: _49  and  _50
REMARK   25  A    between atoms: _50  and  _51
REMARK   26  A    between atoms: _51  and  _52
REMARK   27  A    between atoms: _56  and  _58
REMARK   28  A    between atoms: _58  and  _59
REMARK   29  A    between atoms: _58  and  _61
REMARK   30  A    between atoms: _61  and  _62
REMARK   31  A    between atoms: _65  and  _67
REMARK   32  A    between atoms: _67  and  _68
REMARK   33  A    between atoms: _70  and  _72
REMARK   34  A    between atoms: _72  and  _73
REMARK   35  A    between atoms: _72  and  _75
REMARK   36  A    between atoms: _75  and  _76
REMARK   37  A    between atoms: _81  and  _82
REMARK   38  A    between atoms: _85  and  _86
REMARK   39  A    between atoms: _91  and  _93
REMARK   40  A    between atoms: _93  and  _94
REMARK   41  A    between atoms: _93  and  _96
REMARK   42  A    between atoms: _96  and  _97
REMARK   43  A    between atoms: _100  and  _102
REMARK   44  A    between atoms: _102  and  _103
REMARK   45  A    between atoms: _105  and  _107
REMARK   46  A    between atoms: _107  and  _108
REMARK   47  A    between atoms: _107  and  _110
REMARK   48  A    between atoms: _110  and  _111
REMARK   49  A    between atoms: _111  and  _112
REMARK   50  A    between atoms: _112  and  _113
REMARK   51  A    between atoms: _113  and  _114
REMARK   52  A    between atoms: _118  and  _120
REMARK   53  A    between atoms: _120  and  _121
REMARK   54  A    between atoms: _120  and  _123
REMARK   55  A    between atoms: _123  and  _124
REMARK   56  A    between atoms: _127  and  _129
REMARK   57  A    between atoms: _129  and  _130
REMARK   58  A    between atoms: _129  and  _132
REMARK   59  A    between atoms: _135  and  _137
REMARK   60  A    between atoms: _137  and  _138
REMARK   61  A    between atoms: _137  and  _140
REMARK   62  A    between atoms: _140  and  _141
REMARK   63  A    between atoms: _146  and  _148
REMARK   64  A    between atoms: _148  and  _149
REMARK   65  A    between atoms: _148  and  _151
REMARK   66  A    between atoms: _151  and  _152
REMARK   67  A    between atoms: _155  and  _157
REMARK   68  A    between atoms: _157  and  _158
REMARK   69  A    between atoms: _157  and  _160
REMARK   70  A    between atoms: _160  and  _161
REMARK   71  A    between atoms: _164  and  _166
REMARK   72  A    between atoms: _166  and  _167
REMARK   73  A    between atoms: _166  and  _169
REMARK   74  A    between atoms: _169  and  _170
REMARK   75  A    between atoms: _170  and  _171
REMARK   76  A    between atoms: _174  and  _176
REMARK   77  A    between atoms: _176  and  _177
REMARK   78  A    between atoms: _176  and  _179
REMARK   79  A    between atoms: _179  and  _180
REMARK   80  A    between atoms: _180  and  _181
REMARK   81  A    between atoms: _183  and  _185
REMARK   82  A    between atoms: _185  and  _186
REMARK   83  A    between atoms: _185  and  _188
REMARK   84  A    between atoms: _188  and  _189
REMARK   85  A    between atoms: _191  and  _193
REMARK   86  A    between atoms: _193  and  _194
REMARK   87  A    between atoms: _193  and  _196
REMARK   88  A    between atoms: _196  and  _197
REMARK   89  A    between atoms: _202  and  _204
REMARK   90  A    between atoms: _204  and  _205
REMARK   91  A    between atoms: _208  and  _210
REMARK   92  A    between atoms: _210  and  _211
REMARK   93  A    between atoms: _210  and  _213
REMARK   94  A    between atoms: _213  and  _214
REMARK   95  A    between atoms: _217  and  _219
REMARK   96  A    between atoms: _219  and  _220
REMARK   97  A    between atoms: _219  and  _222
REMARK   98  A    between atoms: _225  and  _227
REMARK   99  A    between atoms: _227  and  _228
REMARK  100  A    between atoms: _231  and  _232
REMARK  101  A    between atoms: _237  and  _239
REMARK  102  A    between atoms: _239  and  _240
REMARK  103  A    between atoms: _239  and  _242
REMARK  104  A    between atoms: _242  and  _243
REMARK  105  A    between atoms: _245  and  _247
REMARK  106  A    between atoms: _247  and  _248
REMARK  107  A    between atoms: _247  and  _250
REMARK  108  A    between atoms: _250  and  _251
REMARK  109  A    between atoms: _254  and  _256
REMARK  110  A    between atoms: _256  and  _257
REMARK  111  A    between atoms: _256  and  _259
REMARK  112  A    between atoms: _259  and  _260
REMARK  113  A    between atoms: _260  and  _261
REMARK  114  A    between atoms: _261  and  _262
REMARK  115  A    between atoms: _271  and  _273
REMARK  116  A    between atoms: _273  and  _274
REMARK  117  A    between atoms: _273  and  _276
REMARK  118  A    between atoms: _276  and  _277
REMARK  119  A    between atoms: _280  and  _281
REMARK  120  A    between atoms: _286  and  _288
REMARK  121  A    between atoms: _288  and  _289
REMARK  122  A    between atoms: _291  and  _293
REMARK  123  A    between atoms: _293  and  _294
REMARK  124  A    between atoms: _293  and  _296
REMARK  125  A    between atoms: _299  and  _301
REMARK  126  A    between atoms: _301  and  _302
REMARK  127  A    between atoms: _304  and  _306
REMARK  128  A    between atoms: _306  and  _307
REMARK  129  A    between atoms: _310  and  _312
REMARK  130  A    between atoms: _312  and  _313
REMARK  131  A    between atoms: _312  and  _315
REMARK  132  A    between atoms: _315  and  _316
REMARK  133  A    between atoms: _316  and  _317
REMARK  134  A    between atoms: _322  and  _324
REMARK  135  A    between atoms: _324  and  _325
REMARK  136  A    between atoms: _327  and  _329
REMARK  137  A    between atoms: _329  and  _330
REMARK  138  A    between atoms: _332  and  _334
REMARK  139  A    between atoms: _334  and  _335
REMARK  140  A    between atoms: _334  and  _337
REMARK  141  A    between atoms: _337  and  _338
REMARK  142  A    between atoms: _341  and  _343
REMARK  143  A    between atoms: _343  and  _344
REMARK  144  A    between atoms: _343  and  _346
REMARK  145  A    between atoms: _349  and  _351
REMARK  146  A    between atoms: _351  and  _352
REMARK  147  A    between atoms: _354  and  _356
REMARK  148  A    between atoms: _356  and  _357
REMARK  149  A    between atoms: _356  and  _359
REMARK  150  A    between atoms: _359  and  _360
REMARK  151  A    between atoms: _360  and  _361
REMARK  152  A    between atoms: _361  and  _362
REMARK  153  A    between atoms: _371  and  _373
REMARK  154  A    between atoms: _373  and  _374
REMARK  155  A    between atoms: _373  and  _376
REMARK  156  A    between atoms: _376  and  _377
REMARK  157  A    between atoms: _379  and  _381
REMARK  158  A    between atoms: _381  and  _382
REMARK  159  A    between atoms: _381  and  _384
REMARK  160  A    between atoms: _384  and  _385
REMARK  161  A    between atoms: _388  and  _390
REMARK  162  A    between atoms: _390  and  _391
REMARK  163  A    between atoms: _390  and  _393
REMARK  164  A    between atoms: _393  and  _394
REMARK  165  A    between atoms: _399  and  _400
REMARK  166  A    between atoms: _402  and  _404
REMARK  167  A    between atoms: _404  and  _405
REMARK  168  A    between atoms: _404  and  _407
REMARK  169  A    between atoms: _407  and  _408
REMARK  170  A    between atoms: _411  and  _413
REMARK  171  A    between atoms: _413  and  _414
REMARK  172  A    between atoms: _417  and  _419
REMARK  173  A    between atoms: _419  and  _420
REMARK  174  A    between atoms: _419  and  _422
REMARK  175  A    between atoms: _422  and  _423
REMARK  176  A    between atoms: _426  and  _428
REMARK  177  A    between atoms: _428  and  _429
REMARK  178  A    between atoms: _428  and  _431
REMARK  179  A    between atoms: _431  and  _432
REMARK  180  A    between atoms: _436  and  _437
REMARK  181  A    between atoms: _442  and  _444
REMARK  182  A    between atoms: _444  and  _445
REMARK  183  A    between atoms: _444  and  _447
REMARK  184  A    between atoms: _447  and  _448
REMARK  185  A    between atoms: _448  and  _449
REMARK  186  A    between atoms: _452  and  _454
REMARK  187  A    between atoms: _454  and  _455
REMARK  188  A    between atoms: _454  and  _457
REMARK  189  A    between atoms: _457  and  _458
REMARK  190  A    between atoms: _461  and  _463
REMARK  191  A    between atoms: _463  and  _464
REMARK  192  A    between atoms: _463  and  _466
REMARK  193  A    between atoms: _466  and  _467
REMARK  194  A    between atoms: _472  and  _474
REMARK  195  A    between atoms: _474  and  _475
REMARK  196  A    between atoms: _474  and  _477
REMARK  197  A    between atoms: _477  and  _478
REMARK  198  A    between atoms: _478  and  _479
REMARK  199  A    between atoms: _479  and  _480
REMARK  200  A    between atoms: _480  and  _481
REMARK  201  A    between atoms: _485  and  _487
REMARK  202  A    between atoms: _487  and  _488
REMARK  203  A    between atoms: _487  and  _490
REMARK  204  A    between atoms: _490  and  _491
REMARK                            x       y       z     vdW  Elec       q    Type
REMARK                         _______ _______ _______ _____ _____    ______ ____
ROOT
ATOM      1  O   HOH     1       9.255  13.349  -3.003  0.00  0.00    +0.000 OA
ENDROOT
TORSDOF 0
REMARK  Name = ../refined-set-2016/3g1v/3g1v_pocket.pdb
REMARK  204 active torsions:
REMARK  status: ('A' for Active; 'I' for Inactive)
REMARK    1  A    between atoms: _1  and  _3
REMARK    2  A    between atoms: _3  and  _4
REMARK    3  A    between atoms: _3  and  _6
REMARK    4  A    between atoms: _6  and  _7
REMARK    5  A    between atoms: _10  and  _12
REMARK    6  A    between atoms: _12  and  _13
REMARK    7  A    between atoms: _12  and  _15
REMARK    8  A    between atoms: _15  and  _16
REMARK    9  A    between atoms: _19  and  _21
REMARK   10  A    between atoms: _21  and  _22
REMARK   11  A    between atoms: _25  and  _27
REMARK   12  A    between atoms: _27  and  _28
REMARK   13  A    between atoms: _27  and  _30
REMARK   14  A    between atoms: _30  and  _31
REMARK   15  A    between atoms: _31  and  _32
REMARK   16  A    between atoms: _34  and  _36
REMARK   17  A    between atoms: _36  and  _37
REMARK   18  A    between atoms: _36  and  _39
REMARK   19  A    between atoms: _39  and  _40
REMARK   20  A    between atoms: _43  and  _45
REMARK   21  A    between atoms: _45  and  _46
REMARK   22  A    between atoms: _45  and  _48
REMARK   23  A    between atoms: _48  and  _49
REMARK   24  A    between atoms: _49  and  _50
REMARK   25  A    between atoms: _50  and  _51
REMARK   26  A    between atoms: _51  and  _52
REMARK   27  A    between atoms: _56  and  _58
REMARK   28  A    between atoms: _58  and  _59
REMARK   29  A    between atoms: _58  and  _61
REMARK   30  A    between atoms: _61  and  _62
REMARK   31  A    between atoms: _65  and  _67
REMARK   32  A    between atoms: _67  and  _68
REMARK   33  A    between atoms: _70  and  _72
REMARK   34  A    between atoms: _72  and  _73
REMARK   35  A    between atoms: _72  and  _75
REMARK   36  A    between atoms: _75  and  _76
REMARK   37  A    between atoms: _81  and  _82
REMARK   38  A    between atoms: _85  and  _86
REMARK   39  A    between atoms: _91  and  _93
REMARK   40  A    between atoms: _93  and  _94
REMARK   41  A    between atoms: _93  and  _96
REMARK   42  A    between atoms: _96  and  _97
REMARK   43  A    between atoms: _100  and  _102
REMARK   44  A    between atoms: _102  and  _103
REMARK   45  A    between atoms: _105  and  _107
REMARK   46  A    between atoms: _107  and  _108
REMARK   47  A    between atoms: _107  and  _110
REMARK   48  A    between atoms: _110  and  _111
REMARK   49  A    between atoms: _111  and  _112
REMARK   50  A    between atoms: _112  and  _113
REMARK   51  A    between atoms: _113  and  _114
REMARK   52  A    between atoms: _118  and  _120
REMARK   53  A    between atoms: _120  and  _121
REMARK   54  A    between atoms: _120  and  _123
REMARK   55  A    between atoms: _123  and  _124
REMARK   56  A    between atoms: _127  and  _129
REMARK   57  A    between atoms: _129  and  _130
REMARK   58  A    between atoms: _129  and  _132
REMARK   59  A    between atoms: _135  and  _137
REMARK   60  A    between atoms: _137  and  _138
REMARK   61  A    between atoms: _137  and  _140
REMARK   62  A    between atoms: _140  and  _141
REMARK   63  A    between atoms: _146  and  _148
REMARK   64  A    between atoms: _148  and  _149
REMARK   65  A    between atoms: _148  and  _151
REMARK   66  A    between atoms: _151  and  _152
REMARK   67  A    between atoms: _155  and  _157
REMARK   68  A    between atoms: _157  and  _158
REMARK   69  A    between atoms: _157  and  _160
REMARK   70  A    between atoms: _160  and  _161
REMARK   71  A    between atoms: _164  and  _166
REMARK   72  A    between atoms: _166  and  _167
REMARK   73  A    between atoms: _166  and  _169
REMARK   74  A    between atoms: _169  and  _170
REMARK   75  A    between atoms: _170  and  _171
REMARK   76  A    between atoms: _174  and  _176
REMARK   77  A    between atoms: _176  and  _177
REMARK   78  A    between atoms: _176  and  _179
REMARK   79  A    between atoms: _179  and  _180
REMARK   80  A    between atoms: _180  and  _181
REMARK   81  A    between atoms: _183  and  _185
REMARK   82  A    between atoms: _185  and  _186
REMARK   83  A    between atoms: _185  and  _188
REMARK   84  A    between atoms: _188  and  _189
REMARK   85  A    between atoms: _191  and  _193
REMARK   86  A    between atoms: _193  and  _194
REMARK   87  A    between atoms: _193  and  _196
REMARK   88  A    between atoms: _196  and  _197
REMARK   89  A    between atoms: _202  and  _204
REMARK   90  A    between atoms: _204  and  _205
REMARK   91  A    between atoms: _208  and  _210
REMARK   92  A    between atoms: _210  and  _211
REMARK   93  A    between atoms: _210  and  _213
REMARK   94  A    between atoms: _213  and  _214
REMARK   95  A    between atoms: _217  and  _219
REMARK   96  A    between atoms: _219  and  _220
REMARK   97  A    between atoms: _219  and  _222
REMARK   98  A    between atoms: _225  and  _227
REMARK   99  A    between atoms: _227  and  _228
REMARK  100  A    between atoms: _231  and  _232
REMARK  101  A    between atoms: _237  and  _239
REMARK  102  A    between atoms: _239  and  _240
REMARK  103  A    between atoms: _239  and  _242
REMARK  104  A    between atoms: _242  and  _243
REMARK  105  A    between atoms: _245  and  _247
REMARK  106  A    between atoms: _247  and  _248
REMARK  107  A    between atoms: _247  and  _250
REMARK  108  A    between atoms: _250  and  _251
REMARK  109  A    between atoms: _254  and  _256
REMARK  110  A    between atoms: _256  and  _257
REMARK  111  A    between atoms: _256  and  _259
REMARK  112  A    between atoms: _259  and  _260
REMARK  113  A    between atoms: _260  and  _261
REMARK  114  A    between atoms: _261  and  _262
REMARK  115  A    between atoms: _271  and  _273
REMARK  116  A    between atoms: _273  and  _274
REMARK  117  A    between atoms: _273  and  _276
REMARK  118  A    between atoms: _276  and  _277
REMARK  119  A    between atoms: _280  and  _281
REMARK  120  A    between atoms: _286  and  _288
REMARK  121  A    between atoms: _288  and  _289
REMARK  122  A    between atoms: _291  and  _293
REMARK  123  A    between atoms: _293  and  _294
REMARK  124  A    between atoms: _293  and  _296
REMARK  125  A    between atoms: _299  and  _301
REMARK  126  A    between atoms: _301  and  _302
REMARK  127  A    between atoms: _304  and  _306
REMARK  128  A    between atoms: _306  and  _307
REMARK  129  A    between atoms: _310  and  _312
REMARK  130  A    between atoms: _312  and  _313
REMARK  131  A    between atoms: _312  and  _315
REMARK  132  A    between atoms: _315  and  _316
REMARK  133  A    between atoms: _316  and  _317
REMARK  134  A    between atoms: _322  and  _324
REMARK  135  A    between atoms: _324  and  _325
REMARK  136  A    between atoms: _327  and  _329
REMARK  137  A    between atoms: _329  and  _330
REMARK  138  A    between atoms: _332  and  _334
REMARK  139  A    between atoms: _334  and  _335
REMARK  140  A    between atoms: _334  and  _337
REMARK  141  A    between atoms: _337  and  _338
REMARK  142  A    between atoms: _341  and  _343
REMARK  143  A    between atoms: _343  and  _344
REMARK  144  A    between atoms: _343  and  _346
REMARK  145  A    between atoms: _349  and  _351
REMARK  146  A    between atoms: _351  and  _352
REMARK  147  A    between atoms: _354  and  _356
REMARK  148  A    between atoms: _356  and  _357
REMARK  149  A    between atoms: _356  and  _359
REMARK  150  A    between atoms: _359  and  _360
REMARK  151  A    between atoms: _360  and  _361
REMARK  152  A    between atoms: _361  and  _362
REMARK  153  A    between atoms: _371  and  _373
REMARK  154  A    between atoms: _373  and  _374
REMARK  155  A    between atoms: _373  and  _376
REMARK  156  A    between atoms: _376  and  _377
REMARK  157  A    between atoms: _379  and  _381
REMARK  158  A    between atoms: _381  and  _382
REMARK  159  A    between atoms: _381  and  _384
REMARK  160  A    between atoms: _384  and  _385
REMARK  161  A    between atoms: _388  and  _390
REMARK  162  A    between atoms: _390  and  _391
REMARK  163  A    between atoms: _390  and  _393
REMARK  164  A    between atoms: _393  and  _394
REMARK  165  A    between atoms: _399  and  _400
REMARK  166  A    between atoms: _402  and  _404
REMARK  167  A    between atoms: _404  and  _405
REMARK  168  A    between atoms: _404  and  _407
REMARK  169  A    between atoms: _407  and  _408
REMARK  170  A    between atoms: _411  and  _413
REMARK  171  A    between atoms: _413  and  _414
REMARK  172  A    between atoms: _417  and  _419
REMARK  173  A    between atoms: _419  and  _420
REMARK  174  A    between atoms: _419  and  _422
REMARK  175  A    between atoms: _422  and  _423
REMARK  176  A    between atoms: _426  and  _428
REMARK  177  A    between atoms: _428  and  _429
REMARK  178  A    between atoms: _428  and  _431
REMARK  179  A    between atoms: _431  and  _432
REMARK  180  A    between atoms: _436  and  _437
REMARK  181  A    between atoms: _442  and  _444
REMARK  182  A    between atoms: _444  and  _445
REMARK  183  A    between atoms: _444  and  _447
REMARK  184  A    between atoms: _447  and  _448
REMARK  185  A    between atoms: _448  and  _449
REMARK  186  A    between atoms: _452  and  _454
REMARK  187  A    between atoms: _454  and  _455
REMARK  188  A    between atoms: _454  and  _457
REMARK  189  A    between atoms: _457  and  _458
REMARK  190  A    between atoms: _461  and  _463
REMARK  191  A    between atoms: _463  and  _464
REMARK  192  A    between atoms: _463  and  _466
REMARK  193  A    between atoms: _466  and  _467
REMARK  194  A    between atoms: _472  and  _474
REMARK  195  A    between atoms: _474  and  _475
REMARK  196  A    between atoms: _474  and  _477
REMARK  197  A    between atoms: _477  and  _478
REMARK  198  A    between atoms: _478  and  _479
REMARK  199  A    between atoms: _479  and  _480
REMARK  200  A    between atoms: _480  and  _481
REMARK  201  A    between atoms: _485  and  _487
REMARK  202  A    between atoms: _487  and  _488
REMARK  203  A    between atoms: _487  and  _490
REMARK  204  A    between atoms: _490  and  _491
REMARK                            x       y       z     vdW  Elec       q    Type
REMARK                         _______ _______ _______ _____ _____    ______ ____
ROOT
ATOM      1  O   HOH     1       4.540   6.209  -0.346  0.00  0.00    +0.000 OA
ENDROOT
TORSDOF 0
REMARK  Name = ../refined-set-2016/3g1v/3g1v_pocket.pdb
REMARK  204 active torsions:
REMARK  status: ('A' for Active; 'I' for Inactive)
REMARK    1  A    between atoms: _1  and  _3
REMARK    2  A    between atoms: _3  and  _4
REMARK    3  A    between atoms: _3  and  _6
REMARK    4  A    between atoms: _6  and  _7
REMARK    5  A    between atoms: _10  and  _12
REMARK    6  A    between atoms: _12  and  _13
REMARK    7  A    between atoms: _12  and  _15
REMARK    8  A    between atoms: _15  and  _16
REMARK    9  A    between atoms: _19  and  _21
REMARK   10  A    between atoms: _21  and  _22
REMARK   11  A    between atoms: _25  and  _27
REMARK   12  A    between atoms: _27  and  _28
REMARK   13  A    between atoms: _27  and  _30
REMARK   14  A    between atoms: _30  and  _31
REMARK   15  A    between atoms: _31  and  _32
REMARK   16  A    between atoms: _34  and  _36
REMARK   17  A    between atoms: _36  and  _37
REMARK   18  A    between atoms: _36  and  _39
REMARK   19  A    between atoms: _39  and  _40
REMARK   20  A    between atoms: _43  and  _45
REMARK   21  A    between atoms: _45  and  _46
REMARK   22  A    between atoms: _45  and  _48
REMARK   23  A    between atoms: _48  and  _49
REMARK   24  A    between atoms: _49  and  _50
REMARK   25  A    between atoms: _50  and  _51
REMARK   26  A    between atoms: _51  and  _52
REMARK   27  A    between atoms: _56  and  _58
REMARK   28  A    between atoms: _58  and  _59
REMARK   29  A    between atoms: _58  and  _61
REMARK   30  A    between atoms: _61  and  _62
REMARK   31  A    between atoms: _65  and  _67
REMARK   32  A    between atoms: _67  and  _68
REMARK   33  A    between atoms: _70  and  _72
REMARK   34  A    between atoms: _72  and  _73
REMARK   35  A    between atoms: _72  and  _75
REMARK   36  A    between atoms: _75  and  _76
REMARK   37  A    between atoms: _81  and  _82
REMARK   38  A    between atoms: _85  and  _86
REMARK   39  A    between atoms: _91  and  _93
REMARK   40  A    between atoms: _93  and  _94
REMARK   41  A    between atoms: _93  and  _96
REMARK   42  A    between atoms: _96  and  _97
REMARK   43  A    between atoms: _100  and  _102
REMARK   44  A    between atoms: _102  and  _103
REMARK   45  A    between atoms: _105  and  _107
REMARK   46  A    between atoms: _107  and  _108
REMARK   47  A    between atoms: _107  and  _110
REMARK   48  A    between atoms: _110  and  _111
REMARK   49  A    between atoms: _111  and  _112
REMARK   50  A    between atoms: _112  and  _113
REMARK   51  A    between atoms: _113  and  _114
REMARK   52  A    between atoms: _118  and  _120
REMARK   53  A    between atoms: _120  and  _121
REMARK   54  A    between atoms: _120  and  _123
REMARK   55  A    between atoms: _123  and  _124
REMARK   56  A    between atoms: _127  and  _129
REMARK   57  A    between atoms: _129  and  _130
REMARK   58  A    between atoms: _129  and  _132
REMARK   59  A    between atoms: _135  and  _137
REMARK   60  A    between atoms: _137  and  _138
REMARK   61  A    between atoms: _137  and  _140
REMARK   62  A    between atoms: _140  and  _141
REMARK   63  A    between atoms: _146  and  _148
REMARK   64  A    between atoms: _148  and  _149
REMARK   65  A    between atoms: _148  and  _151
REMARK   66  A    between atoms: _151  and  _152
REMARK   67  A    between atoms: _155  and  _157
REMARK   68  A    between atoms: _157  and  _158
REMARK   69  A    between atoms: _157  and  _160
REMARK   70  A    between atoms: _160  and  _161
REMARK   71  A    between atoms: _164  and  _166
REMARK   72  A    between atoms: _166  and  _167
REMARK   73  A    between atoms: _166  and  _169
REMARK   74  A    between atoms: _169  and  _170
REMARK   75  A    between atoms: _170  and  _171
REMARK   76  A    between atoms: _174  and  _176
REMARK   77  A    between atoms: _176  and  _177
REMARK   78  A    between atoms: _176  and  _179
REMARK   79  A    between atoms: _179  and  _180
REMARK   80  A    between atoms: _180  and  _181
REMARK   81  A    between atoms: _183  and  _185
REMARK   82  A    between atoms: _185  and  _186
REMARK   83  A    between atoms: _185  and  _188
REMARK   84  A    between atoms: _188  and  _189
REMARK   85  A    between atoms: _191  and  _193
REMARK   86  A    between atoms: _193  and  _194
REMARK   87  A    between atoms: _193  and  _196
REMARK   88  A    between atoms: _196  and  _197
REMARK   89  A    between atoms: _202  and  _204
REMARK   90  A    between atoms: _204  and  _205
REMARK   91  A    between atoms: _208  and  _210
REMARK   92  A    between atoms: _210  and  _211
REMARK   93  A    between atoms: _210  and  _213
REMARK   94  A    between atoms: _213  and  _214
REMARK   95  A    between atoms: _217  and  _219
REMARK   96  A    between atoms: _219  and  _220
REMARK   97  A    between atoms: _219  and  _222
REMARK   98  A    between atoms: _225  and  _227
REMARK   99  A    between atoms: _227  and  _228
REMARK  100  A    between atoms: _231  and  _232
REMARK  101  A    between atoms: _237  and  _239
REMARK  102  A    between atoms: _239  and  _240
REMARK  103  A    between atoms: _239  and  _242
REMARK  104  A    between atoms: _242  and  _243
REMARK  105  A    between atoms: _245  and  _247
REMARK  106  A    between atoms: _247  and  _248
REMARK  107  A    between atoms: _247  and  _250
REMARK  108  A    between atoms: _250  and  _251
REMARK  109  A    between atoms: _254  and  _256
REMARK  110  A    between atoms: _256  and  _257
REMARK  111  A    between atoms: _256  and  _259
REMARK  112  A    between atoms: _259  and  _260
REMARK  113  A    between atoms: _260  and  _261
REMARK  114  A    between atoms: _261  and  _262
REMARK  115  A    between atoms: _271  and  _273
REMARK  116  A    between atoms: _273  and  _274
REMARK  117  A    between atoms: _273  and  _276
REMARK  118  A    between atoms: _276  and  _277
REMARK  119  A    between atoms: _280  and  _281
REMARK  120  A    between atoms: _286  and  _288
REMARK  121  A    between atoms: _288  and  _289
REMARK  122  A    between atoms: _291  and  _293
REMARK  123  A    between atoms: _293  and  _294
REMARK  124  A    between atoms: _293  and  _296
REMARK  125  A    between atoms: _299  and  _301
REMARK  126  A    between atoms: _301  and  _302
REMARK  127  A    between atoms: _304  and  _306
REMARK  128  A    between atoms: _306  and  _307
REMARK  129  A    between atoms: _310  and  _312
REMARK  130  A    between atoms: _312  and  _313
REMARK  131  A    between atoms: _312  and  _315
REMARK  132  A    between atoms: _315  and  _316
REMARK  133  A    between atoms: _316  and  _317
REMARK  134  A    between atoms: _322  and  _324
REMARK  135  A    between atoms: _324  and  _325
REMARK  136  A    between atoms: _327  and  _329
REMARK  137  A    between atoms: _329  and  _330
REMARK  138  A    between atoms: _332  and  _334
REMARK  139  A    between atoms: _334  and  _335
REMARK  140  A    between atoms: _334  and  _337
REMARK  141  A    between atoms: _337  and  _338
REMARK  142  A    between atoms: _341  and  _343
REMARK  143  A    between atoms: _343  and  _344
REMARK  144  A    between atoms: _343  and  _346
REMARK  145  A    between atoms: _349  and  _351
REMARK  146  A    between atoms: _351  and  _352
REMARK  147  A    between atoms: _354  and  _356
REMARK  148  A    between atoms: _356  and  _357
REMARK  149  A    between atoms: _356  and  _359
REMARK  150  A    between atoms: _359  and  _360
REMARK  151  A    between atoms: _360  and  _361
REMARK  152  A    between atoms: _361  and  _362
REMARK  153  A    between atoms: _371  and  _373
REMARK  154  A    between atoms: _373  and  _374
REMARK  155  A    between atoms: _373  and  _376
REMARK  156  A    between atoms: _376  and  _377
REMARK  157  A    between atoms: _379  and  _381
REMARK  158  A    between atoms: _381  and  _382
REMARK  159  A    between atoms: _381  and  _384
REMARK  160  A    between atoms: _384  and  _385
REMARK  161  A    between atoms: _388  and  _390
REMARK  162  A    between atoms: _390  and  _391
REMARK  163  A    between atoms: _390  and  _393
REMARK  164  A    between atoms: _393  and  _394
REMARK  165  A    between atoms: _399  and  _400
REMARK  166  A    between atoms: _402  and  _404
REMARK  167  A    between atoms: _404  and  _405
REMARK  168  A    between atoms: _404  and  _407
REMARK  169  A    between atoms: _407  and  _408
REMARK  170  A    between atoms: _411  and  _413
REMARK  171  A    between atoms: _413  and  _414
REMARK  172  A    between atoms: _417  and  _419
REMARK  173  A    between atoms: _419  and  _420
REMARK  174  A    between atoms: _419  and  _422
REMARK  175  A    between atoms: _422  and  _423
REMARK  176  A    between atoms: _426  and  _428
REMARK  177  A    between atoms: _428  and  _429
REMARK  178  A    between atoms: _428  and  _431
REMARK  179  A    between atoms: _431  and  _432
REMARK  180  A    between atoms: _436  and  _437
REMARK  181  A    between atoms: _442  and  _444
REMARK  182  A    between atoms: _444  and  _445
REMARK  183  A    between atoms: _444  and  _447
REMARK  184  A    between atoms: _447  and  _448
REMARK  185  A    between atoms: _448  and  _449
REMARK  186  A    between atoms: _452  and  _454
REMARK  187  A    between atoms: _454  and  _455
REMARK  188  A    between atoms: _454  and  _457
REMARK  189  A    between atoms: _457  and  _458
REMARK  190  A    between atoms: _461  and  _463
REMARK  191  A    between atoms: _463  and  _464
REMARK  192  A    between atoms: _463  and  _466
REMARK  193  A    between atoms: _466  and  _467
REMARK  194  A    between atoms: _472  and  _474
REMARK  195  A    between atoms: _474  and  _475
REMARK  196  A    between atoms: _474  and  _477
REMARK  197  A    between atoms: _477  and  _478
REMARK  198  A    between atoms: _478  and  _479
REMARK  199  A    between atoms: _479  and  _480
REMARK  200  A    between atoms: _480  and  _481
REMARK  201  A    between atoms: _485  and  _487
REMARK  202  A    between atoms: _487  and  _488
REMARK  203  A    between atoms: _487  and  _490
REMARK  204  A    between atoms: _490  and  _491
REMARK                            x       y       z     vdW  Elec       q    Type
REMARK                         _______ _______ _______ _____ _____    ______ ____
ROOT
ATOM      1  O   HOH     1       4.075  -1.178   6.314  0.00  0.00    +0.000 OA
ENDROOT
TORSDOF 0
REMARK  Name = ../refined-set-2016/3g1v/3g1v_pocket.pdb
REMARK  204 active torsions:
REMARK  status: ('A' for Active; 'I' for Inactive)
REMARK    1  A    between atoms: _1  and  _3
REMARK    2  A    between atoms: _3  and  _4
REMARK    3  A    between atoms: _3  and  _6
REMARK    4  A    between atoms: _6  and  _7
REMARK    5  A    between atoms: _10  and  _12
REMARK    6  A    between atoms: _12  and  _13
REMARK    7  A    between atoms: _12  and  _15
REMARK    8  A    between atoms: _15  and  _16
REMARK    9  A    between atoms: _19  and  _21
REMARK   10  A    between atoms: _21  and  _22
REMARK   11  A    between atoms: _25  and  _27
REMARK   12  A    between atoms: _27  and  _28
REMARK   13  A    between atoms: _27  and  _30
REMARK   14  A    between atoms: _30  and  _31
REMARK   15  A    between atoms: _31  and  _32
REMARK   16  A    between atoms: _34  and  _36
REMARK   17  A    between atoms: _36  and  _37
REMARK   18  A    between atoms: _36  and  _39
REMARK   19  A    between atoms: _39  and  _40
REMARK   20  A    between atoms: _43  and  _45
REMARK   21  A    between atoms: _45  and  _46
REMARK   22  A    between atoms: _45  and  _48
REMARK   23  A    between atoms: _48  and  _49
REMARK   24  A    between atoms: _49  and  _50
REMARK   25  A    between atoms: _50  and  _51
REMARK   26  A    between atoms: _51  and  _52
REMARK   27  A    between atoms: _56  and  _58
REMARK   28  A    between atoms: _58  and  _59
REMARK   29  A    between atoms: _58  and  _61
REMARK   30  A    between atoms: _61  and  _62
REMARK   31  A    between atoms: _65  and  _67
REMARK   32  A    between atoms: _67  and  _68
REMARK   33  A    between atoms: _70  and  _72
REMARK   34  A    between atoms: _72  and  _73
REMARK   35  A    between atoms: _72  and  _75
REMARK   36  A    between atoms: _75  and  _76
REMARK   37  A    between atoms: _81  and  _82
REMARK   38  A    between atoms: _85  and  _86
REMARK   39  A    between atoms: _91  and  _93
REMARK   40  A    between atoms: _93  and  _94
REMARK   41  A    between atoms: _93  and  _96
REMARK   42  A    between atoms: _96  and  _97
REMARK   43  A    between atoms: _100  and  _102
REMARK   44  A    between atoms: _102  and  _103
REMARK   45  A    between atoms: _105  and  _107
REMARK   46  A    between atoms: _107  and  _108
REMARK   47  A    between atoms: _107  and  _110
REMARK   48  A    between atoms: _110  and  _111
REMARK   49  A    between atoms: _111  and  _112
REMARK   50  A    between atoms: _112  and  _113
REMARK   51  A    between atoms: _113  and  _114
REMARK   52  A    between atoms: _118  and  _120
REMARK   53  A    between atoms: _120  and  _121
REMARK   54  A    between atoms: _120  and  _123
REMARK   55  A    between atoms: _123  and  _124
REMARK   56  A    between atoms: _127  and  _129
REMARK   57  A    between atoms: _129  and  _130
REMARK   58  A    between atoms: _129  and  _132
REMARK   59  A    between atoms: _135  and  _137
REMARK   60  A    between atoms: _137  and  _138
REMARK   61  A    between atoms: _137  and  _140
REMARK   62  A    between atoms: _140  and  _141
REMARK   63  A    between atoms: _146  and  _148
REMARK   64  A    between atoms: _148  and  _149
REMARK   65  A    between atoms: _148  and  _151
REMARK   66  A    between atoms: _151  and  _152
REMARK   67  A    between atoms: _155  and  _157
REMARK   68  A    between atoms: _157  and  _158
REMARK   69  A    between atoms: _157  and  _160
REMARK   70  A    between atoms: _160  and  _161
REMARK   71  A    between atoms: _164  and  _166
REMARK   72  A    between atoms: _166  and  _167
REMARK   73  A    between atoms: _166  and  _169
REMARK   74  A    between atoms: _169  and  _170
REMARK   75  A    between atoms: _170  and  _171
REMARK   76  A    between atoms: _174  and  _176
REMARK   77  A    between atoms: _176  and  _177
REMARK   78  A    between atoms: _176  and  _179
REMARK   79  A    between atoms: _179  and  _180
REMARK   80  A    between atoms: _180  and  _181
REMARK   81  A    between atoms: _183  and  _185
REMARK   82  A    between atoms: _185  and  _186
REMARK   83  A    between atoms: _185  and  _188
REMARK   84  A    between atoms: _188  and  _189
REMARK   85  A    between atoms: _191  and  _193
REMARK   86  A    between atoms: _193  and  _194
REMARK   87  A    between atoms: _193  and  _196
REMARK   88  A    between atoms: _196  and  _197
REMARK   89  A    between atoms: _202  and  _204
REMARK   90  A    between atoms: _204  and  _205
REMARK   91  A    between atoms: _208  and  _210
REMARK   92  A    between atoms: _210  and  _211
REMARK   93  A    between atoms: _210  and  _213
REMARK   94  A    between atoms: _213  and  _214
REMARK   95  A    between atoms: _217  and  _219
REMARK   96  A    between atoms: _219  and  _220
REMARK   97  A    between atoms: _219  and  _222
REMARK   98  A    between atoms: _225  and  _227
REMARK   99  A    between atoms: _227  and  _228
REMARK  100  A    between atoms: _231  and  _232
REMARK  101  A    between atoms: _237  and  _239
REMARK  102  A    between atoms: _239  and  _240
REMARK  103  A    between atoms: _239  and  _242
REMARK  104  A    between atoms: _242  and  _243
REMARK  105  A    between atoms: _245  and  _247
REMARK  106  A    between atoms: _247  and  _248
REMARK  107  A    between atoms: _247  and  _250
REMARK  108  A    between atoms: _250  and  _251
REMARK  109  A    between atoms: _254  and  _256
REMARK  110  A    between atoms: _256  and  _257
REMARK  111  A    between atoms: _256  and  _259
REMARK  112  A    between atoms: _259  and  _260
REMARK  113  A    between atoms: _260  and  _261
REMARK  114  A    between atoms: _261  and  _262
REMARK  115  A    between atoms: _271  and  _273
REMARK  116  A    between atoms: _273  and  _274
REMARK  117  A    between atoms: _273  and  _276
REMARK  118  A    between atoms: _276  and  _277
REMARK  119  A    between atoms: _280  and  _281
REMARK  120  A    between atoms: _286  and  _288
REMARK  121  A    between atoms: _288  and  _289
REMARK  122  A    between atoms: _291  and  _293
REMARK  123  A    between atoms: _293  and  _294
REMARK  124  A    between atoms: _293  and  _296
REMARK  125  A    between atoms: _299  and  _301
REMARK  126  A    between atoms: _301  and  _302
REMARK  127  A    between atoms: _304  and  _306
REMARK  128  A    between atoms: _306  and  _307
REMARK  129  A    between atoms: _310  and  _312
REMARK  130  A    between atoms: _312  and  _313
REMARK  131  A    between atoms: _312  and  _315
REMARK  132  A    between atoms: _315  and  _316
REMARK  133  A    between atoms: _316  and  _317
REMARK  134  A    between atoms: _322  and  _324
REMARK  135  A    between atoms: _324  and  _325
REMARK  136  A    between atoms: _327  and  _329
REMARK  137  A    between atoms: _329  and  _330
REMARK  138  A    between atoms: _332  and  _334
REMARK  139  A    between atoms: _334  and  _335
REMARK  140  A    between atoms: _334  and  _337
REMARK  141  A    between atoms: _337  and  _338
REMARK  142  A    between atoms: _341  and  _343
REMARK  143  A    between atoms: _343  and  _344
REMARK  144  A    between atoms: _343  and  _346
REMARK  145  A    between atoms: _349  and  _351
REMARK  146  A    between atoms: _351  and  _352
REMARK  147  A    between atoms: _354  and  _356
REMARK  148  A    between atoms: _356  and  _357
REMARK  149  A    between atoms: _356  and  _359
REMARK  150  A    between atoms: _359  and  _360
REMARK  151  A    between atoms: _360  and  _361
REMARK  152  A    between atoms: _361  and  _362
REMARK  153  A    between atoms: _371  and  _373
REMARK  154  A    between atoms: _373  and  _374
REMARK  155  A    between atoms: _373  and  _376
REMARK  156  A    between atoms: _376  and  _377
REMARK  157  A    between atoms: _379  and  _381
REMARK  158  A    between atoms: _381  and  _382
REMARK  159  A    between atoms: _381  and  _384
REMARK  160  A    between atoms: _384  and  _385
REMARK  161  A    between atoms: _388  and  _390
REMARK  162  A    between atoms: _390  and  _391
REMARK  163  A    between atoms: _390  and  _393
REMARK  164  A    between atoms: _393  and  _394
REMARK  165  A    between atoms: _399  and  _400
REMARK  166  A    between atoms: _402  and  _404
REMARK  167  A    between atoms: _404  and  _405
REMARK  168  A    between atoms: _404  and  _407
REMARK  169  A    between atoms: _407  and  _408
REMARK  170  A    between atoms: _411  and  _413
REMARK  171  A    between atoms: _413  and  _414
REMARK  172  A    between atoms: _417  and  _419
REMARK  173  A    between atoms: _419  and  _420
REMARK  174  A    between atoms: _419  and  _422
REMARK  175  A    between atoms: _422  and  _423
REMARK  176  A    between atoms: _426  and  _428
REMARK  177  A    between atoms: _428  and  _429
REMARK  178  A    between atoms: _428  and  _431
REMARK  179  A    between atoms: _431  and  _432
REMARK  180  A    between atoms: _436  and  _437
REMARK  181  A    between atoms: _442  and  _444
REMARK  182  A    between atoms: _444  and  _445
REMARK  183  A    between atoms: _444  and  _447
REMARK  184  A    between atoms: _447  and  _448
REMARK  185  A    between atoms: _448  and  _449
REMARK  186  A    between atoms: _452  and  _454
REMARK  187  A    between atoms: _454  and  _455
REMARK  188  A    between atoms: _454  and  _457
REMARK  189  A    between atoms: _457  and  _458
REMARK  190  A    between atoms: _461  and  _463
REMARK  191  A    between atoms: _463  and  _464
REMARK  192  A    between atoms: _463  and  _466
REMARK  193  A    between atoms: _466  and  _467
REMARK  194  A    between atoms: _472  and  _474
REMARK  195  A    between atoms: _474  and  _475
REMARK  196  A    between atoms: _474  and  _477
REMARK  197  A    between atoms: _477  and  _478
REMARK  198  A    between atoms: _478  and  _479
REMARK  199  A    between atoms: _479  and  _480
REMARK  200  A    between atoms: _480  and  _481
REMARK  201  A    between atoms: _485  and  _487
REMARK  202  A    between atoms: _487  and  _488
REMARK  203  A    between atoms: _487  and  _490
REMARK  204  A    between atoms: _490  and  _491
REMARK                            x       y       z     vdW  Elec       q    Type
REMARK                         _______ _______ _______ _____ _____    ______ ____
ROOT
ATOM      1  O   HOH     1      11.175  -2.316   6.326  0.00  0.00    +0.000 OA
ENDROOT
TORSDOF 0
REMARK  Name = ../refined-set-2016/3g1v/3g1v_pocket.pdb
REMARK  204 active torsions:
REMARK  status: ('A' for Active; 'I' for Inactive)
REMARK    1  A    between atoms: _1  and  _3
REMARK    2  A    between atoms: _3  and  _4
REMARK    3  A    between atoms: _3  and  _6
REMARK    4  A    between atoms: _6  and  _7
REMARK    5  A    between atoms: _10  and  _12
REMARK    6  A    between atoms: _12  and  _13
REMARK    7  A    between atoms: _12  and  _15
REMARK    8  A    between atoms: _15  and  _16
REMARK    9  A    between atoms: _19  and  _21
REMARK   10  A    between atoms: _21  and  _22
REMARK   11  A    between atoms: _25  and  _27
REMARK   12  A    between atoms: _27  and  _28
REMARK   13  A    between atoms: _27  and  _30
REMARK   14  A    between atoms: _30  and  _31
REMARK   15  A    between atoms: _31  and  _32
REMARK   16  A    between atoms: _34  and  _36
REMARK   17  A    between atoms: _36  and  _37
REMARK   18  A    between atoms: _36  and  _39
REMARK   19  A    between atoms: _39  and  _40
REMARK   20  A    between atoms: _43  and  _45
REMARK   21  A    between atoms: _45  and  _46
REMARK   22  A    between atoms: _45  and  _48
REMARK   23  A    between atoms: _48  and  _49
REMARK   24  A    between atoms: _49  and  _50
REMARK   25  A    between atoms: _50  and  _51
REMARK   26  A    between atoms: _51  and  _52
REMARK   27  A    between atoms: _56  and  _58
REMARK   28  A    between atoms: _58  and  _59
REMARK   29  A    between atoms: _58  and  _61
REMARK   30  A    between atoms: _61  and  _62
REMARK   31  A    between atoms: _65  and  _67
REMARK   32  A    between atoms: _67  and  _68
REMARK   33  A    between atoms: _70  and  _72
REMARK   34  A    between atoms: _72  and  _73
REMARK   35  A    between atoms: _72  and  _75
REMARK   36  A    between atoms: _75  and  _76
REMARK   37  A    between atoms: _81  and  _82
REMARK   38  A    between atoms: _85  and  _86
REMARK   39  A    between atoms: _91  and  _93
REMARK   40  A    between atoms: _93  and  _94
REMARK   41  A    between atoms: _93  and  _96
REMARK   42  A    between atoms: _96  and  _97
REMARK   43  A    between atoms: _100  and  _102
REMARK   44  A    between atoms: _102  and  _103
REMARK   45  A    between atoms: _105  and  _107
REMARK   46  A    between atoms: _107  and  _108
REMARK   47  A    between atoms: _107  and  _110
REMARK   48  A    between atoms: _110  and  _111
REMARK   49  A    between atoms: _111  and  _112
REMARK   50  A    between atoms: _112  and  _113
REMARK   51  A    between atoms: _113  and  _114
REMARK   52  A    between atoms: _118  and  _120
REMARK   53  A    between atoms: _120  and  _121
REMARK   54  A    between atoms: _120  and  _123
REMARK   55  A    between atoms: _123  and  _124
REMARK   56  A    between atoms: _127  and  _129
REMARK   57  A    between atoms: _129  and  _130
REMARK   58  A    between atoms: _129  and  _132
REMARK   59  A    between atoms: _135  and  _137
REMARK   60  A    between atoms: _137  and  _138
REMARK   61  A    between atoms: _137  and  _140
REMARK   62  A    between atoms: _140  and  _141
REMARK   63  A    between atoms: _146  and  _148
REMARK   64  A    between atoms: _148  and  _149
REMARK   65  A    between atoms: _148  and  _151
REMARK   66  A    between atoms: _151  and  _152
REMARK   67  A    between atoms: _155  and  _157
REMARK   68  A    between atoms: _157  and  _158
REMARK   69  A    between atoms: _157  and  _160
REMARK   70  A    between atoms: _160  and  _161
REMARK   71  A    between atoms: _164  and  _166
REMARK   72  A    between atoms: _166  and  _167
REMARK   73  A    between atoms: _166  and  _169
REMARK   74  A    between atoms: _169  and  _170
REMARK   75  A    between atoms: _170  and  _171
REMARK   76  A    between atoms: _174  and  _176
REMARK   77  A    between atoms: _176  and  _177
REMARK   78  A    between atoms: _176  and  _179
REMARK   79  A    between atoms: _179  and  _180
REMARK   80  A    between atoms: _180  and  _181
REMARK   81  A    between atoms: _183  and  _185
REMARK   82  A    between atoms: _185  and  _186
REMARK   83  A    between atoms: _185  and  _188
REMARK   84  A    between atoms: _188  and  _189
REMARK   85  A    between atoms: _191  and  _193
REMARK   86  A    between atoms: _193  and  _194
REMARK   87  A    between atoms: _193  and  _196
REMARK   88  A    between atoms: _196  and  _197
REMARK   89  A    between atoms: _202  and  _204
REMARK   90  A    between atoms: _204  and  _205
REMARK   91  A    between atoms: _208  and  _210
REMARK   92  A    between atoms: _210  and  _211
REMARK   93  A    between atoms: _210  and  _213
REMARK   94  A    between atoms: _213  and  _214
REMARK   95  A    between atoms: _217  and  _219
REMARK   96  A    between atoms: _219  and  _220
REMARK   97  A    between atoms: _219  and  _222
REMARK   98  A    between atoms: _225  and  _227
REMARK   99  A    between atoms: _227  and  _228
REMARK  100  A    between atoms: _231  and  _232
REMARK  101  A    between atoms: _237  and  _239
REMARK  102  A    between atoms: _239  and  _240
REMARK  103  A    between atoms: _239  and  _242
REMARK  104  A    between atoms: _242  and  _243
REMARK  105  A    between atoms: _245  and  _247
REMARK  106  A    between atoms: _247  and  _248
REMARK  107  A    between atoms: _247  and  _250
REMARK  108  A    between atoms: _250  and  _251
REMARK  109  A    between atoms: _254  and  _256
REMARK  110  A    between atoms: _256  and  _257
REMARK  111  A    between atoms: _256  and  _259
REMARK  112  A    between atoms: _259  and  _260
REMARK  113  A    between atoms: _260  and  _261
REMARK  114  A    between atoms: _261  and  _262
REMARK  115  A    between atoms: _271  and  _273
REMARK  116  A    between atoms: _273  and  _274
REMARK  117  A    between atoms: _273  and  _276
REMARK  118  A    between atoms: _276  and  _277
REMARK  119  A    between atoms: _280  and  _281
REMARK  120  A    between atoms: _286  and  _288
REMARK  121  A    between atoms: _288  and  _289
REMARK  122  A    between atoms: _291  and  _293
REMARK  123  A    between atoms: _293  and  _294
REMARK  124  A    between atoms: _293  and  _296
REMARK  125  A    between atoms: _299  and  _301
REMARK  126  A    between atoms: _301  and  _302
REMARK  127  A    between atoms: _304  and  _306
REMARK  128  A    between atoms: _306  and  _307
REMARK  129  A    between atoms: _310  and  _312
REMARK  130  A    between atoms: _312  and  _313
REMARK  131  A    between atoms: _312  and  _315
REMARK  132  A    between atoms: _315  and  _316
REMARK  133  A    between atoms: _316  and  _317
REMARK  134  A    between atoms: _322  and  _324
REMARK  135  A    between atoms: _324  and  _325
REMARK  136  A    between atoms: _327  and  _329
REMARK  137  A    between atoms: _329  and  _330
REMARK  138  A    between atoms: _332  and  _334
REMARK  139  A    between atoms: _334  and  _335
REMARK  140  A    between atoms: _334  and  _337
REMARK  141  A    between atoms: _337  and  _338
REMARK  142  A    between atoms: _341  and  _343
REMARK  143  A    between atoms: _343  and  _344
REMARK  144  A    between atoms: _343  and  _346
REMARK  145  A    between atoms: _349  and  _351
REMARK  146  A    between atoms: _351  and  _352
REMARK  147  A    between atoms: _354  and  _356
REMARK  148  A    between atoms: _356  and  _357
REMARK  149  A    between atoms: _356  and  _359
REMARK  150  A    between atoms: _359  and  _360
REMARK  151  A    between atoms: _360  and  _361
REMARK  152  A    between atoms: _361  and  _362
REMARK  153  A    between atoms: _371  and  _373
REMARK  154  A    between atoms: _373  and  _374
REMARK  155  A    between atoms: _373  and  _376
REMARK  156  A    between atoms: _376  and  _377
REMARK  157  A    between atoms: _379  and  _381
REMARK  158  A    between atoms: _381  and  _382
REMARK  159  A    between atoms: _381  and  _384
REMARK  160  A    between atoms: _384  and  _385
REMARK  161  A    between atoms: _388  and  _390
REMARK  162  A    between atoms: _390  and  _391
REMARK  163  A    between atoms: _390  and  _393
REMARK  164  A    between atoms: _393  and  _394
REMARK  165  A    between atoms: _399  and  _400
REMARK  166  A    between atoms: _402  and  _404
REMARK  167  A    between atoms: _404  and  _405
REMARK  168  A    between atoms: _404  and  _407
REMARK  169  A    between atoms: _407  and  _408
REMARK  170  A    between atoms: _411  and  _413
REMARK  171  A    between atoms: _413  and  _414
REMARK  172  A    between atoms: _417  and  _419
REMARK  173  A    between atoms: _419  and  _420
REMARK  174  A    between atoms: _419  and  _422
REMARK  175  A    between atoms: _422  and  _423
REMARK  176  A    between atoms: _426  and  _428
REMARK  177  A    between atoms: _428  and  _429
REMARK  178  A    between atoms: _428  and  _431
REMARK  179  A    between atoms: _431  and  _432
REMARK  180  A    between atoms: _436  and  _437
REMARK  181  A    between atoms: _442  and  _444
REMARK  182  A    between atoms: _444  and  _445
REMARK  183  A    between atoms: _444  and  _447
REMARK  184  A    between atoms: _447  and  _448
REMARK  185  A    between atoms: _448  and  _449
REMARK  186  A    between atoms: _452  and  _454
REMARK  187  A    between atoms: _454  and  _455
REMARK  188  A    between atoms: _454  and  _457
REMARK  189  A    between atoms: _457  and  _458
REMARK  190  A    between atoms: _461  and  _463
REMARK  191  A    between atoms: _463  and  _464
REMARK  192  A    between atoms: _463  and  _466
REMARK  193  A    between atoms: _466  and  _467
REMARK  194  A    between atoms: _472  and  _474
REMARK  195  A    between atoms: _474  and  _475
REMARK  196  A    between atoms: _474  and  _477
REMARK  197  A    between atoms: _477  and  _478
REMARK  198  A    between atoms: _478  and  _479
REMARK  199  A    between atoms: _479  and  _480
REMARK  200  A    between atoms: _480  and  _481
REMARK  201  A    between atoms: _485  and  _487
REMARK  202  A    between atoms: _487  and  _488
REMARK  203  A    between atoms: _487  and  _490
REMARK  204  A    between atoms: _490  and  _491
REMARK                            x       y       z     vdW  Elec       q    Type
REMARK                         _______ _______ _______ _____ _____    ______ ____
ROOT
ATOM      1  O   HOH     1       5.025  -4.610   6.587  0.00  0.00    +0.000 OA
ENDROOT
TORSDOF 0
REMARK  Name = ../refined-set-2016/3g1v/3g1v_pocket.pdb
REMARK  204 active torsions:
REMARK  status: ('A' for Active; 'I' for Inactive)
REMARK    1  A    between atoms: _1  and  _3
REMARK    2  A    between atoms: _3  and  _4
REMARK    3  A    between atoms: _3  and  _6
REMARK    4  A    between atoms: _6  and  _7
REMARK    5  A    between atoms: _10  and  _12
REMARK    6  A    between atoms: _12  and  _13
REMARK    7  A    between atoms: _12  and  _15
REMARK    8  A    between atoms: _15  and  _16
REMARK    9  A    between atoms: _19  and  _21
REMARK   10  A    between atoms: _21  and  _22
REMARK   11  A    between atoms: _25  and  _27
REMARK   12  A    between atoms: _27  and  _28
REMARK   13  A    between atoms: _27  and  _30
REMARK   14  A    between atoms: _30  and  _31
REMARK   15  A    between atoms: _31  and  _32
REMARK   16  A    between atoms: _34  and  _36
REMARK   17  A    between atoms: _36  and  _37
REMARK   18  A    between atoms: _36  and  _39
REMARK   19  A    between atoms: _39  and  _40
REMARK   20  A    between atoms: _43  and  _45
REMARK   21  A    between atoms: _45  and  _46
REMARK   22  A    between atoms: _45  and  _48
REMARK   23  A    between atoms: _48  and  _49
REMARK   24  A    between atoms: _49  and  _50
REMARK   25  A    between atoms: _50  and  _51
REMARK   26  A    between atoms: _51  and  _52
REMARK   27  A    between atoms: _56  and  _58
REMARK   28  A    between atoms: _58  and  _59
REMARK   29  A    between atoms: _58  and  _61
REMARK   30  A    between atoms: _61  and  _62
REMARK   31  A    between atoms: _65  and  _67
REMARK   32  A    between atoms: _67  and  _68
REMARK   33  A    between atoms: _70  and  _72
REMARK   34  A    between atoms: _72  and  _73
REMARK   35  A    between atoms: _72  and  _75
REMARK   36  A    between atoms: _75  and  _76
REMARK   37  A    between atoms: _81  and  _82
REMARK   38  A    between atoms: _85  and  _86
REMARK   39  A    between atoms: _91  and  _93
REMARK   40  A    between atoms: _93  and  _94
REMARK   41  A    between atoms: _93  and  _96
REMARK   42  A    between atoms: _96  and  _97
REMARK   43  A    between atoms: _100  and  _102
REMARK   44  A    between atoms: _102  and  _103
REMARK   45  A    between atoms: _105  and  _107
REMARK   46  A    between atoms: _107  and  _108
REMARK   47  A    between atoms: _107  and  _110
REMARK   48  A    between atoms: _110  and  _111
REMARK   49  A    between atoms: _111  and  _112
REMARK   50  A    between atoms: _112  and  _113
REMARK   51  A    between atoms: _113  and  _114
REMARK   52  A    between atoms: _118  and  _120
REMARK   53  A    between atoms: _120  and  _121
REMARK   54  A    between atoms: _120  and  _123
REMARK   55  A    between atoms: _123  and  _124
REMARK   56  A    between atoms: _127  and  _129
REMARK   57  A    between atoms: _129  and  _130
REMARK   58  A    between atoms: _129  and  _132
REMARK   59  A    between atoms: _135  and  _137
REMARK   60  A    between atoms: _137  and  _138
REMARK   61  A    between atoms: _137  and  _140
REMARK   62  A    between atoms: _140  and  _141
REMARK   63  A    between atoms: _146  and  _148
REMARK   64  A    between atoms: _148  and  _149
REMARK   65  A    between atoms: _148  and  _151
REMARK   66  A    between atoms: _151  and  _152
REMARK   67  A    between atoms: _155  and  _157
REMARK   68  A    between atoms: _157  and  _158
REMARK   69  A    between atoms: _157  and  _160
REMARK   70  A    between atoms: _160  and  _161
REMARK   71  A    between atoms: _164  and  _166
REMARK   72  A    between atoms: _166  and  _167
REMARK   73  A    between atoms: _166  and  _169
REMARK   74  A    between atoms: _169  and  _170
REMARK   75  A    between atoms: _170  and  _171
REMARK   76  A    between atoms: _174  and  _176
REMARK   77  A    between atoms: _176  and  _177
REMARK   78  A    between atoms: _176  and  _179
REMARK   79  A    between atoms: _179  and  _180
REMARK   80  A    between atoms: _180  and  _181
REMARK   81  A    between atoms: _183  and  _185
REMARK   82  A    between atoms: _185  and  _186
REMARK   83  A    between atoms: _185  and  _188
REMARK   84  A    between atoms: _188  and  _189
REMARK   85  A    between atoms: _191  and  _193
REMARK   86  A    between atoms: _193  and  _194
REMARK   87  A    between atoms: _193  and  _196
REMARK   88  A    between atoms: _196  and  _197
REMARK   89  A    between atoms: _202  and  _204
REMARK   90  A    between atoms: _204  and  _205
REMARK   91  A    between atoms: _208  and  _210
REMARK   92  A    between atoms: _210  and  _211
REMARK   93  A    between atoms: _210  and  _213
REMARK   94  A    between atoms: _213  and  _214
REMARK   95  A    between atoms: _217  and  _219
REMARK   96  A    between atoms: _219  and  _220
REMARK   97  A    between atoms: _219  and  _222
REMARK   98  A    between atoms: _225  and  _227
REMARK   99  A    between atoms: _227  and  _228
REMARK  100  A    between atoms: _231  and  _232
REMARK  101  A    between atoms: _237  and  _239
REMARK  102  A    between atoms: _239  and  _240
REMARK  103  A    between atoms: _239  and  _242
REMARK  104  A    between atoms: _242  and  _243
REMARK  105  A    between atoms: _245  and  _247
REMARK  106  A    between atoms: _247  and  _248
REMARK  107  A    between atoms: _247  and  _250
REMARK  108  A    between atoms: _250  and  _251
REMARK  109  A    between atoms: _254  and  _256
REMARK  110  A    between atoms: _256  and  _257
REMARK  111  A    between atoms: _256  and  _259
REMARK  112  A    between atoms: _259  and  _260
REMARK  113  A    between atoms: _260  and  _261
REMARK  114  A    between atoms: _261  and  _262
REMARK  115  A    between atoms: _271  and  _273
REMARK  116  A    between atoms: _273  and  _274
REMARK  117  A    between atoms: _273  and  _276
REMARK  118  A    between atoms: _276  and  _277
REMARK  119  A    between atoms: _280  and  _281
REMARK  120  A    between atoms: _286  and  _288
REMARK  121  A    between atoms: _288  and  _289
REMARK  122  A    between atoms: _291  and  _293
REMARK  123  A    between atoms: _293  and  _294
REMARK  124  A    between atoms: _293  and  _296
REMARK  125  A    between atoms: _299  and  _301
REMARK  126  A    between atoms: _301  and  _302
REMARK  127  A    between atoms: _304  and  _306
REMARK  128  A    between atoms: _306  and  _307
REMARK  129  A    between atoms: _310  and  _312
REMARK  130  A    between atoms: _312  and  _313
REMARK  131  A    between atoms: _312  and  _315
REMARK  132  A    between atoms: _315  and  _316
REMARK  133  A    between atoms: _316  and  _317
REMARK  134  A    between atoms: _322  and  _324
REMARK  135  A    between atoms: _324  and  _325
REMARK  136  A    between atoms: _327  and  _329
REMARK  137  A    between atoms: _329  and  _330
REMARK  138  A    between atoms: _332  and  _334
REMARK  139  A    between atoms: _334  and  _335
REMARK  140  A    between atoms: _334  and  _337
REMARK  141  A    between atoms: _337  and  _338
REMARK  142  A    between atoms: _341  and  _343
REMARK  143  A    between atoms: _343  and  _344
REMARK  144  A    between atoms: _343  and  _346
REMARK  145  A    between atoms: _349  and  _351
REMARK  146  A    between atoms: _351  and  _352
REMARK  147  A    between atoms: _354  and  _356
REMARK  148  A    between atoms: _356  and  _357
REMARK  149  A    between atoms: _356  and  _359
REMARK  150  A    between atoms: _359  and  _360
REMARK  151  A    between atoms: _360  and  _361
REMARK  152  A    between atoms: _361  and  _362
REMARK  153  A    between atoms: _371  and  _373
REMARK  154  A    between atoms: _373  and  _374
REMARK  155  A    between atoms: _373  and  _376
REMARK  156  A    between atoms: _376  and  _377
REMARK  157  A    between atoms: _379  and  _381
REMARK  158  A    between atoms: _381  and  _382
REMARK  159  A    between atoms: _381  and  _384
REMARK  160  A    between atoms: _384  and  _385
REMARK  161  A    between atoms: _388  and  _390
REMARK  162  A    between atoms: _390  and  _391
REMARK  163  A    between atoms: _390  and  _393
REMARK  164  A    between atoms: _393  and  _394
REMARK  165  A    between atoms: _399  and  _400
REMARK  166  A    between atoms: _402  and  _404
REMARK  167  A    between atoms: _404  and  _405
REMARK  168  A    between atoms: _404  and  _407
REMARK  169  A    between atoms: _407  and  _408
REMARK  170  A    between atoms: _411  and  _413
REMARK  171  A    between atoms: _413  and  _414
REMARK  172  A    between atoms: _417  and  _419
REMARK  173  A    between atoms: _419  and  _420
REMARK  174  A    between atoms: _419  and  _422
REMARK  175  A    between atoms: _422  and  _423
REMARK  176  A    between atoms: _426  and  _428
REMARK  177  A    between atoms: _428  and  _429
REMARK  178  A    between atoms: _428  and  _431
REMARK  179  A    between atoms: _431  and  _432
REMARK  180  A    between atoms: _436  and  _437
REMARK  181  A    between atoms: _442  and  _444
REMARK  182  A    between atoms: _444  and  _445
REMARK  183  A    between atoms: _444  and  _447
REMARK  184  A    between atoms: _447  and  _448
REMARK  185  A    between atoms: _448  and  _449
REMARK  186  A    between atoms: _452  and  _454
REMARK  187  A    between atoms: _454  and  _455
REMARK  188  A    between atoms: _454  and  _457
REMARK  189  A    between atoms: _457  and  _458
REMARK  190  A    between atoms: _461  and  _463
REMARK  191  A    between atoms: _463  and  _464
REMARK  192  A    between atoms: _463  and  _466
REMARK  193  A    between atoms: _466  and  _467
REMARK  194  A    between atoms: _472  and  _474
REMARK  195  A    between atoms: _474  and  _475
REMARK  196  A    between atoms: _474  and  _477
REMARK  197  A    between atoms: _477  and  _478
REMARK  198  A    between atoms: _478  and  _479
REMARK  199  A    between atoms: _479  and  _480
REMARK  200  A    between atoms: _480  and  _481
REMARK  201  A    between atoms: _485  and  _487
REMARK  202  A    between atoms: _487  and  _488
REMARK  203  A    between atoms: _487  and  _490
REMARK  204  A    between atoms: _490  and  _491
REMARK                            x       y       z     vdW  Elec       q    Type
REMARK                         _______ _______ _______ _____ _____    ______ ____
ROOT
ATOM      1  O   HOH     1       5.160  -1.527   3.141  0.00  0.00    +0.000 OA
ENDROOT
TORSDOF 0
REMARK  Name = ../refined-set-2016/3g1v/3g1v_pocket.pdb
REMARK  204 active torsions:
REMARK  status: ('A' for Active; 'I' for Inactive)
REMARK    1  A    between atoms: _1  and  _3
REMARK    2  A    between atoms: _3  and  _4
REMARK    3  A    between atoms: _3  and  _6
REMARK    4  A    between atoms: _6  and  _7
REMARK    5  A    between atoms: _10  and  _12
REMARK    6  A    between atoms: _12  and  _13
REMARK    7  A    between atoms: _12  and  _15
REMARK    8  A    between atoms: _15  and  _16
REMARK    9  A    between atoms: _19  and  _21
REMARK   10  A    between atoms: _21  and  _22
REMARK   11  A    between atoms: _25  and  _27
REMARK   12  A    between atoms: _27  and  _28
REMARK   13  A    between atoms: _27  and  _30
REMARK   14  A    between atoms: _30  and  _31
REMARK   15  A    between atoms: _31  and  _32
REMARK   16  A    between atoms: _34  and  _36
REMARK   17  A    between atoms: _36  and  _37
REMARK   18  A    between atoms: _36  and  _39
REMARK   19  A    between atoms: _39  and  _40
REMARK   20  A    between atoms: _43  and  _45
REMARK   21  A    between atoms: _45  and  _46
REMARK   22  A    between atoms: _45  and  _48
REMARK   23  A    between atoms: _48  and  _49
REMARK   24  A    between atoms: _49  and  _50
REMARK   25  A    between atoms: _50  and  _51
REMARK   26  A    between atoms: _51  and  _52
REMARK   27  A    between atoms: _56  and  _58
REMARK   28  A    between atoms: _58  and  _59
REMARK   29  A    between atoms: _58  and  _61
REMARK   30  A    between atoms: _61  and  _62
REMARK   31  A    between atoms: _65  and  _67
REMARK   32  A    between atoms: _67  and  _68
REMARK   33  A    between atoms: _70  and  _72
REMARK   34  A    between atoms: _72  and  _73
REMARK   35  A    between atoms: _72  and  _75
REMARK   36  A    between atoms: _75  and  _76
REMARK   37  A    between atoms: _81  and  _82
REMARK   38  A    between atoms: _85  and  _86
REMARK   39  A    between atoms: _91  and  _93
REMARK   40  A    between atoms: _93  and  _94
REMARK   41  A    between atoms: _93  and  _96
REMARK   42  A    between atoms: _96  and  _97
REMARK   43  A    between atoms: _100  and  _102
REMARK   44  A    between atoms: _102  and  _103
REMARK   45  A    between atoms: _105  and  _107
REMARK   46  A    between atoms: _107  and  _108
REMARK   47  A    between atoms: _107  and  _110
REMARK   48  A    between atoms: _110  and  _111
REMARK   49  A    between atoms: _111  and  _112
REMARK   50  A    between atoms: _112  and  _113
REMARK   51  A    between atoms: _113  and  _114
REMARK   52  A    between atoms: _118  and  _120
REMARK   53  A    between atoms: _120  and  _121
REMARK   54  A    between atoms: _120  and  _123
REMARK   55  A    between atoms: _123  and  _124
REMARK   56  A    between atoms: _127  and  _129
REMARK   57  A    between atoms: _129  and  _130
REMARK   58  A    between atoms: _129  and  _132
REMARK   59  A    between atoms: _135  and  _137
REMARK   60  A    between atoms: _137  and  _138
REMARK   61  A    between atoms: _137  and  _140
REMARK   62  A    between atoms: _140  and  _141
REMARK   63  A    between atoms: _146  and  _148
REMARK   64  A    between atoms: _148  and  _149
REMARK   65  A    between atoms: _148  and  _151
REMARK   66  A    between atoms: _151  and  _152
REMARK   67  A    between atoms: _155  and  _157
REMARK   68  A    between atoms: _157  and  _158
REMARK   69  A    between atoms: _157  and  _160
REMARK   70  A    between atoms: _160  and  _161
REMARK   71  A    between atoms: _164  and  _166
REMARK   72  A    between atoms: _166  and  _167
REMARK   73  A    between atoms: _166  and  _169
REMARK   74  A    between atoms: _169  and  _170
REMARK   75  A    between atoms: _170  and  _171
REMARK   76  A    between atoms: _174  and  _176
REMARK   77  A    between atoms: _176  and  _177
REMARK   78  A    between atoms: _176  and  _179
REMARK   79  A    between atoms: _179  and  _180
REMARK   80  A    between atoms: _180  and  _181
REMARK   81  A    between atoms: _183  and  _185
REMARK   82  A    between atoms: _185  and  _186
REMARK   83  A    between atoms: _185  and  _188
REMARK   84  A    between atoms: _188  and  _189
REMARK   85  A    between atoms: _191  and  _193
REMARK   86  A    between atoms: _193  and  _194
REMARK   87  A    between atoms: _193  and  _196
REMARK   88  A    between atoms: _196  and  _197
REMARK   89  A    between atoms: _202  and  _204
REMARK   90  A    between atoms: _204  and  _205
REMARK   91  A    between atoms: _208  and  _210
REMARK   92  A    between atoms: _210  and  _211
REMARK   93  A    between atoms: _210  and  _213
REMARK   94  A    between atoms: _213  and  _214
REMARK   95  A    between atoms: _217  and  _219
REMARK   96  A    between atoms: _219  and  _220
REMARK   97  A    between atoms: _219  and  _222
REMARK   98  A    between atoms: _225  and  _227
REMARK   99  A    between atoms: _227  and  _228
REMARK  100  A    between atoms: _231  and  _232
REMARK  101  A    between atoms: _237  and  _239
REMARK  102  A    between atoms: _239  and  _240
REMARK  103  A    between atoms: _239  and  _242
REMARK  104  A    between atoms: _242  and  _243
REMARK  105  A    between atoms: _245  and  _247
REMARK  106  A    between atoms: _247  and  _248
REMARK  107  A    between atoms: _247  and  _250
REMARK  108  A    between atoms: _250  and  _251
REMARK  109  A    between atoms: _254  and  _256
REMARK  110  A    between atoms: _256  and  _257
REMARK  111  A    between atoms: _256  and  _259
REMARK  112  A    between atoms: _259  and  _260
REMARK  113  A    between atoms: _260  and  _261
REMARK  114  A    between atoms: _261  and  _262
REMARK  115  A    between atoms: _271  and  _273
REMARK  116  A    between atoms: _273  and  _274
REMARK  117  A    between atoms: _273  and  _276
REMARK  118  A    between atoms: _276  and  _277
REMARK  119  A    between atoms: _280  and  _281
REMARK  120  A    between atoms: _286  and  _288
REMARK  121  A    between atoms: _288  and  _289
REMARK  122  A    between atoms: _291  and  _293
REMARK  123  A    between atoms: _293  and  _294
REMARK  124  A    between atoms: _293  and  _296
REMARK  125  A    between atoms: _299  and  _301
REMARK  126  A    between atoms: _301  and  _302
REMARK  127  A    between atoms: _304  and  _306
REMARK  128  A    between atoms: _306  and  _307
REMARK  129  A    between atoms: _310  and  _312
REMARK  130  A    between atoms: _312  and  _313
REMARK  131  A    between atoms: _312  and  _315
REMARK  132  A    between atoms: _315  and  _316
REMARK  133  A    between atoms: _316  and  _317
REMARK  134  A    between atoms: _322  and  _324
REMARK  135  A    between atoms: _324  and  _325
REMARK  136  A    between atoms: _327  and  _329
REMARK  137  A    between atoms: _329  and  _330
REMARK  138  A    between atoms: _332  and  _334
REMARK  139  A    between atoms: _334  and  _335
REMARK  140  A    between atoms: _334  and  _337
REMARK  141  A    between atoms: _337  and  _338
REMARK  142  A    between atoms: _341  and  _343
REMARK  143  A    between atoms: _343  and  _344
REMARK  144  A    between atoms: _343  and  _346
REMARK  145  A    between atoms: _349  and  _351
REMARK  146  A    between atoms: _351  and  _352
REMARK  147  A    between atoms: _354  and  _356
REMARK  148  A    between atoms: _356  and  _357
REMARK  149  A    between atoms: _356  and  _359
REMARK  150  A    between atoms: _359  and  _360
REMARK  151  A    between atoms: _360  and  _361
REMARK  152  A    between atoms: _361  and  _362
REMARK  153  A    between atoms: _371  and  _373
REMARK  154  A    between atoms: _373  and  _374
REMARK  155  A    between atoms: _373  and  _376
REMARK  156  A    between atoms: _376  and  _377
REMARK  157  A    between atoms: _379  and  _381
REMARK  158  A    between atoms: _381  and  _382
REMARK  159  A    between atoms: _381  and  _384
REMARK  160  A    between atoms: _384  and  _385
REMARK  161  A    between atoms: _388  and  _390
REMARK  162  A    between atoms: _390  and  _391
REMARK  163  A    between atoms: _390  and  _393
REMARK  164  A    between atoms: _393  and  _394
REMARK  165  A    between atoms: _399  and  _400
REMARK  166  A    between atoms: _402  and  _404
REMARK  167  A    between atoms: _404  and  _405
REMARK  168  A    between atoms: _404  and  _407
REMARK  169  A    between atoms: _407  and  _408
REMARK  170  A    between atoms: _411  and  _413
REMARK  171  A    between atoms: _413  and  _414
REMARK  172  A    between atoms: _417  and  _419
REMARK  173  A    between atoms: _419  and  _420
REMARK  174  A    between atoms: _419  and  _422
REMARK  175  A    between atoms: _422  and  _423
REMARK  176  A    between atoms: _426  and  _428
REMARK  177  A    between atoms: _428  and  _429
REMARK  178  A    between atoms: _428  and  _431
REMARK  179  A    between atoms: _431  and  _432
REMARK  180  A    between atoms: _436  and  _437
REMARK  181  A    between atoms: _442  and  _444
REMARK  182  A    between atoms: _444  and  _445
REMARK  183  A    between atoms: _444  and  _447
REMARK  184  A    between atoms: _447  and  _448
REMARK  185  A    between atoms: _448  and  _449
REMARK  186  A    between atoms: _452  and  _454
REMARK  187  A    between atoms: _454  and  _455
REMARK  188  A    between atoms: _454  and  _457
REMARK  189  A    between atoms: _457  and  _458
REMARK  190  A    between atoms: _461  and  _463
REMARK  191  A    between atoms: _463  and  _464
REMARK  192  A    between atoms: _463  and  _466
REMARK  193  A    between atoms: _466  and  _467
REMARK  194  A    between atoms: _472  and  _474
REMARK  195  A    between atoms: _474  and  _475
REMARK  196  A    between atoms: _474  and  _477
REMARK  197  A    between atoms: _477  and  _478
REMARK  198  A    between atoms: _478  and  _479
REMARK  199  A    between atoms: _479  and  _480
REMARK  200  A    between atoms: _480  and  _481
REMARK  201  A    between atoms: _485  and  _487
REMARK  202  A    between atoms: _487  and  _488
REMARK  203  A    between atoms: _487  and  _490
REMARK  204  A    between atoms: _490  and  _491
REMARK                            x       y       z     vdW  Elec       q    Type
REMARK                         _______ _______ _______ _____ _____    ______ ____
ROOT
ATOM      1  O   HOH     1      16.758   2.942   1.836  0.00  0.00    +0.000 OA
ENDROOT
TORSDOF 0
REMARK  Name = ../refined-set-2016/3g1v/3g1v_pocket.pdb
REMARK  204 active torsions:
REMARK  status: ('A' for Active; 'I' for Inactive)
REMARK    1  A    between atoms: _1  and  _3
REMARK    2  A    between atoms: _3  and  _4
REMARK    3  A    between atoms: _3  and  _6
REMARK    4  A    between atoms: _6  and  _7
REMARK    5  A    between atoms: _10  and  _12
REMARK    6  A    between atoms: _12  and  _13
REMARK    7  A    between atoms: _12  and  _15
REMARK    8  A    between atoms: _15  and  _16
REMARK    9  A    between atoms: _19  and  _21
REMARK   10  A    between atoms: _21  and  _22
REMARK   11  A    between atoms: _25  and  _27
REMARK   12  A    between atoms: _27  and  _28
REMARK   13  A    between atoms: _27  and  _30
REMARK   14  A    between atoms: _30  and  _31
REMARK   15  A    between atoms: _31  and  _32
REMARK   16  A    between atoms: _34  and  _36
REMARK   17  A    between atoms: _36  and  _37
REMARK   18  A    between atoms: _36  and  _39
REMARK   19  A    between atoms: _39  and  _40
REMARK   20  A    between atoms: _43  and  _45
REMARK   21  A    between atoms: _45  and  _46
REMARK   22  A    between atoms: _45  and  _48
REMARK   23  A    between atoms: _48  and  _49
REMARK   24  A    between atoms: _49  and  _50
REMARK   25  A    between atoms: _50  and  _51
REMARK   26  A    between atoms: _51  and  _52
REMARK   27  A    between atoms: _56  and  _58
REMARK   28  A    between atoms: _58  and  _59
REMARK   29  A    between atoms: _58  and  _61
REMARK   30  A    between atoms: _61  and  _62
REMARK   31  A    between atoms: _65  and  _67
REMARK   32  A    between atoms: _67  and  _68
REMARK   33  A    between atoms: _70  and  _72
REMARK   34  A    between atoms: _72  and  _73
REMARK   35  A    between atoms: _72  and  _75
REMARK   36  A    between atoms: _75  and  _76
REMARK   37  A    between atoms: _81  and  _82
REMARK   38  A    between atoms: _85  and  _86
REMARK   39  A    between atoms: _91  and  _93
REMARK   40  A    between atoms: _93  and  _94
REMARK   41  A    between atoms: _93  and  _96
REMARK   42  A    between atoms: _96  and  _97
REMARK   43  A    between atoms: _100  and  _102
REMARK   44  A    between atoms: _102  and  _103
REMARK   45  A    between atoms: _105  and  _107
REMARK   46  A    between atoms: _107  and  _108
REMARK   47  A    between atoms: _107  and  _110
REMARK   48  A    between atoms: _110  and  _111
REMARK   49  A    between atoms: _111  and  _112
REMARK   50  A    between atoms: _112  and  _113
REMARK   51  A    between atoms: _113  and  _114
REMARK   52  A    between atoms: _118  and  _120
REMARK   53  A    between atoms: _120  and  _121
REMARK   54  A    between atoms: _120  and  _123
REMARK   55  A    between atoms: _123  and  _124
REMARK   56  A    between atoms: _127  and  _129
REMARK   57  A    between atoms: _129  and  _130
REMARK   58  A    between atoms: _129  and  _132
REMARK   59  A    between atoms: _135  and  _137
REMARK   60  A    between atoms: _137  and  _138
REMARK   61  A    between atoms: _137  and  _140
REMARK   62  A    between atoms: _140  and  _141
REMARK   63  A    between atoms: _146  and  _148
REMARK   64  A    between atoms: _148  and  _149
REMARK   65  A    between atoms: _148  and  _151
REMARK   66  A    between atoms: _151  and  _152
REMARK   67  A    between atoms: _155  and  _157
REMARK   68  A    between atoms: _157  and  _158
REMARK   69  A    between atoms: _157  and  _160
REMARK   70  A    between atoms: _160  and  _161
REMARK   71  A    between atoms: _164  and  _166
REMARK   72  A    between atoms: _166  and  _167
REMARK   73  A    between atoms: _166  and  _169
REMARK   74  A    between atoms: _169  and  _170
REMARK   75  A    between atoms: _170  and  _171
REMARK   76  A    between atoms: _174  and  _176
REMARK   77  A    between atoms: _176  and  _177
REMARK   78  A    between atoms: _176  and  _179
REMARK   79  A    between atoms: _179  and  _180
REMARK   80  A    between atoms: _180  and  _181
REMARK   81  A    between atoms: _183  and  _185
REMARK   82  A    between atoms: _185  and  _186
REMARK   83  A    between atoms: _185  and  _188
REMARK   84  A    between atoms: _188  and  _189
REMARK   85  A    between atoms: _191  and  _193
REMARK   86  A    between atoms: _193  and  _194
REMARK   87  A    between atoms: _193  and  _196
REMARK   88  A    between atoms: _196  and  _197
REMARK   89  A    between atoms: _202  and  _204
REMARK   90  A    between atoms: _204  and  _205
REMARK   91  A    between atoms: _208  and  _210
REMARK   92  A    between atoms: _210  and  _211
REMARK   93  A    between atoms: _210  and  _213
REMARK   94  A    between atoms: _213  and  _214
REMARK   95  A    between atoms: _217  and  _219
REMARK   96  A    between atoms: _219  and  _220
REMARK   97  A    between atoms: _219  and  _222
REMARK   98  A    between atoms: _225  and  _227
REMARK   99  A    between atoms: _227  and  _228
REMARK  100  A    between atoms: _231  and  _232
REMARK  101  A    between atoms: _237  and  _239
REMARK  102  A    between atoms: _239  and  _240
REMARK  103  A    between atoms: _239  and  _242
REMARK  104  A    between atoms: _242  and  _243
REMARK  105  A    between atoms: _245  and  _247
REMARK  106  A    between atoms: _247  and  _248
REMARK  107  A    between atoms: _247  and  _250
REMARK  108  A    between atoms: _250  and  _251
REMARK  109  A    between atoms: _254  and  _256
REMARK  110  A    between atoms: _256  and  _257
REMARK  111  A    between atoms: _256  and  _259
REMARK  112  A    between atoms: _259  and  _260
REMARK  113  A    between atoms: _260  and  _261
REMARK  114  A    between atoms: _261  and  _262
REMARK  115  A    between atoms: _271  and  _273
REMARK  116  A    between atoms: _273  and  _274
REMARK  117  A    between atoms: _273  and  _276
REMARK  118  A    between atoms: _276  and  _277
REMARK  119  A    between atoms: _280  and  _281
REMARK  120  A    between atoms: _286  and  _288
REMARK  121  A    between atoms: _288  and  _289
REMARK  122  A    between atoms: _291  and  _293
REMARK  123  A    between atoms: _293  and  _294
REMARK  124  A    between atoms: _293  and  _296
REMARK  125  A    between atoms: _299  and  _301
REMARK  126  A    between atoms: _301  and  _302
REMARK  127  A    between atoms: _304  and  _306
REMARK  128  A    between atoms: _306  and  _307
REMARK  129  A    between atoms: _310  and  _312
REMARK  130  A    between atoms: _312  and  _313
REMARK  131  A    between atoms: _312  and  _315
REMARK  132  A    between atoms: _315  and  _316
REMARK  133  A    between atoms: _316  and  _317
REMARK  134  A    between atoms: _322  and  _324
REMARK  135  A    between atoms: _324  and  _325
REMARK  136  A    between atoms: _327  and  _329
REMARK  137  A    between atoms: _329  and  _330
REMARK  138  A    between atoms: _332  and  _334
REMARK  139  A    between atoms: _334  and  _335
REMARK  140  A    between atoms: _334  and  _337
REMARK  141  A    between atoms: _337  and  _338
REMARK  142  A    between atoms: _341  and  _343
REMARK  143  A    between atoms: _343  and  _344
REMARK  144  A    between atoms: _343  and  _346
REMARK  145  A    between atoms: _349  and  _351
REMARK  146  A    between atoms: _351  and  _352
REMARK  147  A    between atoms: _354  and  _356
REMARK  148  A    between atoms: _356  and  _357
REMARK  149  A    between atoms: _356  and  _359
REMARK  150  A    between atoms: _359  and  _360
REMARK  151  A    between atoms: _360  and  _361
REMARK  152  A    between atoms: _361  and  _362
REMARK  153  A    between atoms: _371  and  _373
REMARK  154  A    between atoms: _373  and  _374
REMARK  155  A    between atoms: _373  and  _376
REMARK  156  A    between atoms: _376  and  _377
REMARK  157  A    between atoms: _379  and  _381
REMARK  158  A    between atoms: _381  and  _382
REMARK  159  A    between atoms: _381  and  _384
REMARK  160  A    between atoms: _384  and  _385
REMARK  161  A    between atoms: _388  and  _390
REMARK  162  A    between atoms: _390  and  _391
REMARK  163  A    between atoms: _390  and  _393
REMARK  164  A    between atoms: _393  and  _394
REMARK  165  A    between atoms: _399  and  _400
REMARK  166  A    between atoms: _402  and  _404
REMARK  167  A    between atoms: _404  and  _405
REMARK  168  A    between atoms: _404  and  _407
REMARK  169  A    between atoms: _407  and  _408
REMARK  170  A    between atoms: _411  and  _413
REMARK  171  A    between atoms: _413  and  _414
REMARK  172  A    between atoms: _417  and  _419
REMARK  173  A    between atoms: _419  and  _420
REMARK  174  A    between atoms: _419  and  _422
REMARK  175  A    between atoms: _422  and  _423
REMARK  176  A    between atoms: _426  and  _428
REMARK  177  A    between atoms: _428  and  _429
REMARK  178  A    between atoms: _428  and  _431
REMARK  179  A    between atoms: _431  and  _432
REMARK  180  A    between atoms: _436  and  _437
REMARK  181  A    between atoms: _442  and  _444
REMARK  182  A    between atoms: _444  and  _445
REMARK  183  A    between atoms: _444  and  _447
REMARK  184  A    between atoms: _447  and  _448
REMARK  185  A    between atoms: _448  and  _449
REMARK  186  A    between atoms: _452  and  _454
REMARK  187  A    between atoms: _454  and  _455
REMARK  188  A    between atoms: _454  and  _457
REMARK  189  A    between atoms: _457  and  _458
REMARK  190  A    between atoms: _461  and  _463
REMARK  191  A    between atoms: _463  and  _464
REMARK  192  A    between atoms: _463  and  _466
REMARK  193  A    between atoms: _466  and  _467
REMARK  194  A    between atoms: _472  and  _474
REMARK  195  A    between atoms: _474  and  _475
REMARK  196  A    between atoms: _474  and  _477
REMARK  197  A    between atoms: _477  and  _478
REMARK  198  A    between atoms: _478  and  _479
REMARK  199  A    between atoms: _479  and  _480
REMARK  200  A    between atoms: _480  and  _481
REMARK  201  A    between atoms: _485  and  _487
REMARK  202  A    between atoms: _487  and  _488
REMARK  203  A    between atoms: _487  and  _490
REMARK  204  A    between atoms: _490  and  _491
REMARK                            x       y       z     vdW  Elec       q    Type
REMARK                         _______ _______ _______ _____ _____    ______ ____
ROOT
ATOM      1  O   HOH     1      13.772  -2.062   0.672  0.00  0.00    +0.000 OA
ENDROOT
TORSDOF 0
REMARK  Name = ../refined-set-2016/3g1v/3g1v_pocket.pdb
REMARK  204 active torsions:
REMARK  status: ('A' for Active; 'I' for Inactive)
REMARK    1  A    between atoms: _1  and  _3
REMARK    2  A    between atoms: _3  and  _4
REMARK    3  A    between atoms: _3  and  _6
REMARK    4  A    between atoms: _6  and  _7
REMARK    5  A    between atoms: _10  and  _12
REMARK    6  A    between atoms: _12  and  _13
REMARK    7  A    between atoms: _12  and  _15
REMARK    8  A    between atoms: _15  and  _16
REMARK    9  A    between atoms: _19  and  _21
REMARK   10  A    between atoms: _21  and  _22
REMARK   11  A    between atoms: _25  and  _27
REMARK   12  A    between atoms: _27  and  _28
REMARK   13  A    between atoms: _27  and  _30
REMARK   14  A    between atoms: _30  and  _31
REMARK   15  A    between atoms: _31  and  _32
REMARK   16  A    between atoms: _34  and  _36
REMARK   17  A    between atoms: _36  and  _37
REMARK   18  A    between atoms: _36  and  _39
REMARK   19  A    between atoms: _39  and  _40
REMARK   20  A    between atoms: _43  and  _45
REMARK   21  A    between atoms: _45  and  _46
REMARK   22  A    between atoms: _45  and  _48
REMARK   23  A    between atoms: _48  and  _49
REMARK   24  A    between atoms: _49  and  _50
REMARK   25  A    between atoms: _50  and  _51
REMARK   26  A    between atoms: _51  and  _52
REMARK   27  A    between atoms: _56  and  _58
REMARK   28  A    between atoms: _58  and  _59
REMARK   29  A    between atoms: _58  and  _61
REMARK   30  A    between atoms: _61  and  _62
REMARK   31  A    between atoms: _65  and  _67
REMARK   32  A    between atoms: _67  and  _68
REMARK   33  A    between atoms: _70  and  _72
REMARK   34  A    between atoms: _72  and  _73
REMARK   35  A    between atoms: _72  and  _75
REMARK   36  A    between atoms: _75  and  _76
REMARK   37  A    between atoms: _81  and  _82
REMARK   38  A    between atoms: _85  and  _86
REMARK   39  A    between atoms: _91  and  _93
REMARK   40  A    between atoms: _93  and  _94
REMARK   41  A    between atoms: _93  and  _96
REMARK   42  A    between atoms: _96  and  _97
REMARK   43  A    between atoms: _100  and  _102
REMARK   44  A    between atoms: _102  and  _103
REMARK   45  A    between atoms: _105  and  _107
REMARK   46  A    between atoms: _107  and  _108
REMARK   47  A    between atoms: _107  and  _110
REMARK   48  A    between atoms: _110  and  _111
REMARK   49  A    between atoms: _111  and  _112
REMARK   50  A    between atoms: _112  and  _113
REMARK   51  A    between atoms: _113  and  _114
REMARK   52  A    between atoms: _118  and  _120
REMARK   53  A    between atoms: _120  and  _121
REMARK   54  A    between atoms: _120  and  _123
REMARK   55  A    between atoms: _123  and  _124
REMARK   56  A    between atoms: _127  and  _129
REMARK   57  A    between atoms: _129  and  _130
REMARK   58  A    between atoms: _129  and  _132
REMARK   59  A    between atoms: _135  and  _137
REMARK   60  A    between atoms: _137  and  _138
REMARK   61  A    between atoms: _137  and  _140
REMARK   62  A    between atoms: _140  and  _141
REMARK   63  A    between atoms: _146  and  _148
REMARK   64  A    between atoms: _148  and  _149
REMARK   65  A    between atoms: _148  and  _151
REMARK   66  A    between atoms: _151  and  _152
REMARK   67  A    between atoms: _155  and  _157
REMARK   68  A    between atoms: _157  and  _158
REMARK   69  A    between atoms: _157  and  _160
REMARK   70  A    between atoms: _160  and  _161
REMARK   71  A    between atoms: _164  and  _166
REMARK   72  A    between atoms: _166  and  _167
REMARK   73  A    between atoms: _166  and  _169
REMARK   74  A    between atoms: _169  and  _170
REMARK   75  A    between atoms: _170  and  _171
REMARK   76  A    between atoms: _174  and  _176
REMARK   77  A    between atoms: _176  and  _177
REMARK   78  A    between atoms: _176  and  _179
REMARK   79  A    between atoms: _179  and  _180
REMARK   80  A    between atoms: _180  and  _181
REMARK   81  A    between atoms: _183  and  _185
REMARK   82  A    between atoms: _185  and  _186
REMARK   83  A    between atoms: _185  and  _188
REMARK   84  A    between atoms: _188  and  _189
REMARK   85  A    between atoms: _191  and  _193
REMARK   86  A    between atoms: _193  and  _194
REMARK   87  A    between atoms: _193  and  _196
REMARK   88  A    between atoms: _196  and  _197
REMARK   89  A    between atoms: _202  and  _204
REMARK   90  A    between atoms: _204  and  _205
REMARK   91  A    between atoms: _208  and  _210
REMARK   92  A    between atoms: _210  and  _211
REMARK   93  A    between atoms: _210  and  _213
REMARK   94  A    between atoms: _213  and  _214
REMARK   95  A    between atoms: _217  and  _219
REMARK   96  A    between atoms: _219  and  _220
REMARK   97  A    between atoms: _219  and  _222
REMARK   98  A    between atoms: _225  and  _227
REMARK   99  A    between atoms: _227  and  _228
REMARK  100  A    between atoms: _231  and  _232
REMARK  101  A    between atoms: _237  and  _239
REMARK  102  A    between atoms: _239  and  _240
REMARK  103  A    between atoms: _239  and  _242
REMARK  104  A    between atoms: _242  and  _243
REMARK  105  A    between atoms: _245  and  _247
REMARK  106  A    between atoms: _247  and  _248
REMARK  107  A    between atoms: _247  and  _250
REMARK  108  A    between atoms: _250  and  _251
REMARK  109  A    between atoms: _254  and  _256
REMARK  110  A    between atoms: _256  and  _257
REMARK  111  A    between atoms: _256  and  _259
REMARK  112  A    between atoms: _259  and  _260
REMARK  113  A    between atoms: _260  and  _261
REMARK  114  A    between atoms: _261  and  _262
REMARK  115  A    between atoms: _271  and  _273
REMARK  116  A    between atoms: _273  and  _274
REMARK  117  A    between atoms: _273  and  _276
REMARK  118  A    between atoms: _276  and  _277
REMARK  119  A    between atoms: _280  and  _281
REMARK  120  A    between atoms: _286  and  _288
REMARK  121  A    between atoms: _288  and  _289
REMARK  122  A    between atoms: _291  and  _293
REMARK  123  A    between atoms: _293  and  _294
REMARK  124  A    between atoms: _293  and  _296
REMARK  125  A    between atoms: _299  and  _301
REMARK  126  A    between atoms: _301  and  _302
REMARK  127  A    between atoms: _304  and  _306
REMARK  128  A    between atoms: _306  and  _307
REMARK  129  A    between atoms: _310  and  _312
REMARK  130  A    between atoms: _312  and  _313
REMARK  131  A    between atoms: _312  and  _315
REMARK  132  A    between atoms: _315  and  _316
REMARK  133  A    between atoms: _316  and  _317
REMARK  134  A    between atoms: _322  and  _324
REMARK  135  A    between atoms: _324  and  _325
REMARK  136  A    between atoms: _327  and  _329
REMARK  137  A    between atoms: _329  and  _330
REMARK  138  A    between atoms: _332  and  _334
REMARK  139  A    between atoms: _334  and  _335
REMARK  140  A    between atoms: _334  and  _337
REMARK  141  A    between atoms: _337  and  _338
REMARK  142  A    between atoms: _341  and  _343
REMARK  143  A    between atoms: _343  and  _344
REMARK  144  A    between atoms: _343  and  _346
REMARK  145  A    between atoms: _349  and  _351
REMARK  146  A    between atoms: _351  and  _352
REMARK  147  A    between atoms: _354  and  _356
REMARK  148  A    between atoms: _356  and  _357
REMARK  149  A    between atoms: _356  and  _359
REMARK  150  A    between atoms: _359  and  _360
REMARK  151  A    between atoms: _360  and  _361
REMARK  152  A    between atoms: _361  and  _362
REMARK  153  A    between atoms: _371  and  _373
REMARK  154  A    between atoms: _373  and  _374
REMARK  155  A    between atoms: _373  and  _376
REMARK  156  A    between atoms: _376  and  _377
REMARK  157  A    between atoms: _379  and  _381
REMARK  158  A    between atoms: _381  and  _382
REMARK  159  A    between atoms: _381  and  _384
REMARK  160  A    between atoms: _384  and  _385
REMARK  161  A    between atoms: _388  and  _390
REMARK  162  A    between atoms: _390  and  _391
REMARK  163  A    between atoms: _390  and  _393
REMARK  164  A    between atoms: _393  and  _394
REMARK  165  A    between atoms: _399  and  _400
REMARK  166  A    between atoms: _402  and  _404
REMARK  167  A    between atoms: _404  and  _405
REMARK  168  A    between atoms: _404  and  _407
REMARK  169  A    between atoms: _407  and  _408
REMARK  170  A    between atoms: _411  and  _413
REMARK  171  A    between atoms: _413  and  _414
REMARK  172  A    between atoms: _417  and  _419
REMARK  173  A    between atoms: _419  and  _420
REMARK  174  A    between atoms: _419  and  _422
REMARK  175  A    between atoms: _422  and  _423
REMARK  176  A    between atoms: _426  and  _428
REMARK  177  A    between atoms: _428  and  _429
REMARK  178  A    between atoms: _428  and  _431
REMARK  179  A    between atoms: _431  and  _432
REMARK  180  A    between atoms: _436  and  _437
REMARK  181  A    between atoms: _442  and  _444
REMARK  182  A    between atoms: _444  and  _445
REMARK  183  A    between atoms: _444  and  _447
REMARK  184  A    between atoms: _447  and  _448
REMARK  185  A    between atoms: _448  and  _449
REMARK  186  A    between atoms: _452  and  _454
REMARK  187  A    between atoms: _454  and  _455
REMARK  188  A    between atoms: _454  and  _457
REMARK  189  A    between atoms: _457  and  _458
REMARK  190  A    between atoms: _461  and  _463
REMARK  191  A    between atoms: _463  and  _464
REMARK  192  A    between atoms: _463  and  _466
REMARK  193  A    between atoms: _466  and  _467
REMARK  194  A    between atoms: _472  and  _474
REMARK  195  A    between atoms: _474  and  _475
REMARK  196  A    between atoms: _474  and  _477
REMARK  197  A    between atoms: _477  and  _478
REMARK  198  A    between atoms: _478  and  _479
REMARK  199  A    between atoms: _479  and  _480
REMARK  200  A    between atoms: _480  and  _481
REMARK  201  A    between atoms: _485  and  _487
REMARK  202  A    between atoms: _487  and  _488
REMARK  203  A    between atoms: _487  and  _490
REMARK  204  A    between atoms: _490  and  _491
REMARK                            x       y       z     vdW  Elec       q    Type
REMARK                         _______ _______ _______ _____ _____    ______ ____
ROOT
ATOM      1  O   HOH     1       4.217   5.009   8.898  0.00  0.00    +0.000 OA
ENDROOT
TORSDOF 0
REMARK  Name = ../refined-set-2016/3g1v/3g1v_pocket.pdb
REMARK  204 active torsions:
REMARK  status: ('A' for Active; 'I' for Inactive)
REMARK    1  A    between atoms: _1  and  _3
REMARK    2  A    between atoms: _3  and  _4
REMARK    3  A    between atoms: _3  and  _6
REMARK    4  A    between atoms: _6  and  _7
REMARK    5  A    between atoms: _10  and  _12
REMARK    6  A    between atoms: _12  and  _13
REMARK    7  A    between atoms: _12  and  _15
REMARK    8  A    between atoms: _15  and  _16
REMARK    9  A    between atoms: _19  and  _21
REMARK   10  A    between atoms: _21  and  _22
REMARK   11  A    between atoms: _25  and  _27
REMARK   12  A    between atoms: _27  and  _28
REMARK   13  A    between atoms: _27  and  _30
REMARK   14  A    between atoms: _30  and  _31
REMARK   15  A    between atoms: _31  and  _32
REMARK   16  A    between atoms: _34  and  _36
REMARK   17  A    between atoms: _36  and  _37
REMARK   18  A    between atoms: _36  and  _39
REMARK   19  A    between atoms: _39  and  _40
REMARK   20  A    between atoms: _43  and  _45
REMARK   21  A    between atoms: _45  and  _46
REMARK   22  A    between atoms: _45  and  _48
REMARK   23  A    between atoms: _48  and  _49
REMARK   24  A    between atoms: _49  and  _50
REMARK   25  A    between atoms: _50  and  _51
REMARK   26  A    between atoms: _51  and  _52
REMARK   27  A    between atoms: _56  and  _58
REMARK   28  A    between atoms: _58  and  _59
REMARK   29  A    between atoms: _58  and  _61
REMARK   30  A    between atoms: _61  and  _62
REMARK   31  A    between atoms: _65  and  _67
REMARK   32  A    between atoms: _67  and  _68
REMARK   33  A    between atoms: _70  and  _72
REMARK   34  A    between atoms: _72  and  _73
REMARK   35  A    between atoms: _72  and  _75
REMARK   36  A    between atoms: _75  and  _76
REMARK   37  A    between atoms: _81  and  _82
REMARK   38  A    between atoms: _85  and  _86
REMARK   39  A    between atoms: _91  and  _93
REMARK   40  A    between atoms: _93  and  _94
REMARK   41  A    between atoms: _93  and  _96
REMARK   42  A    between atoms: _96  and  _97
REMARK   43  A    between atoms: _100  and  _102
REMARK   44  A    between atoms: _102  and  _103
REMARK   45  A    between atoms: _105  and  _107
REMARK   46  A    between atoms: _107  and  _108
REMARK   47  A    between atoms: _107  and  _110
REMARK   48  A    between atoms: _110  and  _111
REMARK   49  A    between atoms: _111  and  _112
REMARK   50  A    between atoms: _112  and  _113
REMARK   51  A    between atoms: _113  and  _114
REMARK   52  A    between atoms: _118  and  _120
REMARK   53  A    between atoms: _120  and  _121
REMARK   54  A    between atoms: _120  and  _123
REMARK   55  A    between atoms: _123  and  _124
REMARK   56  A    between atoms: _127  and  _129
REMARK   57  A    between atoms: _129  and  _130
REMARK   58  A    between atoms: _129  and  _132
REMARK   59  A    between atoms: _135  and  _137
REMARK   60  A    between atoms: _137  and  _138
REMARK   61  A    between atoms: _137  and  _140
REMARK   62  A    between atoms: _140  and  _141
REMARK   63  A    between atoms: _146  and  _148
REMARK   64  A    between atoms: _148  and  _149
REMARK   65  A    between atoms: _148  and  _151
REMARK   66  A    between atoms: _151  and  _152
REMARK   67  A    between atoms: _155  and  _157
REMARK   68  A    between atoms: _157  and  _158
REMARK   69  A    between atoms: _157  and  _160
REMARK   70  A    between atoms: _160  and  _161
REMARK   71  A    between atoms: _164  and  _166
REMARK   72  A    between atoms: _166  and  _167
REMARK   73  A    between atoms: _166  and  _169
REMARK   74  A    between atoms: _169  and  _170
REMARK   75  A    between atoms: _170  and  _171
REMARK   76  A    between atoms: _174  and  _176
REMARK   77  A    between atoms: _176  and  _177
REMARK   78  A    between atoms: _176  and  _179
REMARK   79  A    between atoms: _179  and  _180
REMARK   80  A    between atoms: _180  and  _181
REMARK   81  A    between atoms: _183  and  _185
REMARK   82  A    between atoms: _185  and  _186
REMARK   83  A    between atoms: _185  and  _188
REMARK   84  A    between atoms: _188  and  _189
REMARK   85  A    between atoms: _191  and  _193
REMARK   86  A    between atoms: _193  and  _194
REMARK   87  A    between atoms: _193  and  _196
REMARK   88  A    between atoms: _196  and  _197
REMARK   89  A    between atoms: _202  and  _204
REMARK   90  A    between atoms: _204  and  _205
REMARK   91  A    between atoms: _208  and  _210
REMARK   92  A    between atoms: _210  and  _211
REMARK   93  A    between atoms: _210  and  _213
REMARK   94  A    between atoms: _213  and  _214
REMARK   95  A    between atoms: _217  and  _219
REMARK   96  A    between atoms: _219  and  _220
REMARK   97  A    between atoms: _219  and  _222
REMARK   98  A    between atoms: _225  and  _227
REMARK   99  A    between atoms: _227  and  _228
REMARK  100  A    between atoms: _231  and  _232
REMARK  101  A    between atoms: _237  and  _239
REMARK  102  A    between atoms: _239  and  _240
REMARK  103  A    between atoms: _239  and  _242
REMARK  104  A    between atoms: _242  and  _243
REMARK  105  A    between atoms: _245  and  _247
REMARK  106  A    between atoms: _247  and  _248
REMARK  107  A    between atoms: _247  and  _250
REMARK  108  A    between atoms: _250  and  _251
REMARK  109  A    between atoms: _254  and  _256
REMARK  110  A    between atoms: _256  and  _257
REMARK  111  A    between atoms: _256  and  _259
REMARK  112  A    between atoms: _259  and  _260
REMARK  113  A    between atoms: _260  and  _261
REMARK  114  A    between atoms: _261  and  _262
REMARK  115  A    between atoms: _271  and  _273
REMARK  116  A    between atoms: _273  and  _274
REMARK  117  A    between atoms: _273  and  _276
REMARK  118  A    between atoms: _276  and  _277
REMARK  119  A    between atoms: _280  and  _281
REMARK  120  A    between atoms: _286  and  _288
REMARK  121  A    between atoms: _288  and  _289
REMARK  122  A    between atoms: _291  and  _293
REMARK  123  A    between atoms: _293  and  _294
REMARK  124  A    between atoms: _293  and  _296
REMARK  125  A    between atoms: _299  and  _301
REMARK  126  A    between atoms: _301  and  _302
REMARK  127  A    between atoms: _304  and  _306
REMARK  128  A    between atoms: _306  and  _307
REMARK  129  A    between atoms: _310  and  _312
REMARK  130  A    between atoms: _312  and  _313
REMARK  131  A    between atoms: _312  and  _315
REMARK  132  A    between atoms: _315  and  _316
REMARK  133  A    between atoms: _316  and  _317
REMARK  134  A    between atoms: _322  and  _324
REMARK  135  A    between atoms: _324  and  _325
REMARK  136  A    between atoms: _327  and  _329
REMARK  137  A    between atoms: _329  and  _330
REMARK  138  A    between atoms: _332  and  _334
REMARK  139  A    between atoms: _334  and  _335
REMARK  140  A    between atoms: _334  and  _337
REMARK  141  A    between atoms: _337  and  _338
REMARK  142  A    between atoms: _341  and  _343
REMARK  143  A    between atoms: _343  and  _344
REMARK  144  A    between atoms: _343  and  _346
REMARK  145  A    between atoms: _349  and  _351
REMARK  146  A    between atoms: _351  and  _352
REMARK  147  A    between atoms: _354  and  _356
REMARK  148  A    between atoms: _356  and  _357
REMARK  149  A    between atoms: _356  and  _359
REMARK  150  A    between atoms: _359  and  _360
REMARK  151  A    between atoms: _360  and  _361
REMARK  152  A    between atoms: _361  and  _362
REMARK  153  A    between atoms: _371  and  _373
REMARK  154  A    between atoms: _373  and  _374
REMARK  155  A    between atoms: _373  and  _376
REMARK  156  A    between atoms: _376  and  _377
REMARK  157  A    between atoms: _379  and  _381
REMARK  158  A    between atoms: _381  and  _382
REMARK  159  A    between atoms: _381  and  _384
REMARK  160  A    between atoms: _384  and  _385
REMARK  161  A    between atoms: _388  and  _390
REMARK  162  A    between atoms: _390  and  _391
REMARK  163  A    between atoms: _390  and  _393
REMARK  164  A    between atoms: _393  and  _394
REMARK  165  A    between atoms: _399  and  _400
REMARK  166  A    between atoms: _402  and  _404
REMARK  167  A    between atoms: _404  and  _405
REMARK  168  A    between atoms: _404  and  _407
REMARK  169  A    between atoms: _407  and  _408
REMARK  170  A    between atoms: _411  and  _413
REMARK  171  A    between atoms: _413  and  _414
REMARK  172  A    between atoms: _417  and  _419
REMARK  173  A    between atoms: _419  and  _420
REMARK  174  A    between atoms: _419  and  _422
REMARK  175  A    between atoms: _422  and  _423
REMARK  176  A    between atoms: _426  and  _428
REMARK  177  A    between atoms: _428  and  _429
REMARK  178  A    between atoms: _428  and  _431
REMARK  179  A    between atoms: _431  and  _432
REMARK  180  A    between atoms: _436  and  _437
REMARK  181  A    between atoms: _442  and  _444
REMARK  182  A    between atoms: _444  and  _445
REMARK  183  A    between atoms: _444  and  _447
REMARK  184  A    between atoms: _447  and  _448
REMARK  185  A    between atoms: _448  and  _449
REMARK  186  A    between atoms: _452  and  _454
REMARK  187  A    between atoms: _454  and  _455
REMARK  188  A    between atoms: _454  and  _457
REMARK  189  A    between atoms: _457  and  _458
REMARK  190  A    between atoms: _461  and  _463
REMARK  191  A    between atoms: _463  and  _464
REMARK  192  A    between atoms: _463  and  _466
REMARK  193  A    between atoms: _466  and  _467
REMARK  194  A    between atoms: _472  and  _474
REMARK  195  A    between atoms: _474  and  _475
REMARK  196  A    between atoms: _474  and  _477
REMARK  197  A    between atoms: _477  and  _478
REMARK  198  A    between atoms: _478  and  _479
REMARK  199  A    between atoms: _479  and  _480
REMARK  200  A    between atoms: _480  and  _481
REMARK  201  A    between atoms: _485  and  _487
REMARK  202  A    between atoms: _487  and  _488
REMARK  203  A    between atoms: _487  and  _490
REMARK  204  A    between atoms: _490  and  _491
REMARK                            x       y       z     vdW  Elec       q    Type
REMARK                         _______ _______ _______ _____ _____    ______ ____
ROOT
ATOM      1  O   HOH     1      16.479   5.631   0.822  0.00  0.00    +0.000 OA
ENDROOT
TORSDOF 0
REMARK  Name = ../refined-set-2016/3g1v/3g1v_pocket.pdb
REMARK  204 active torsions:
REMARK  status: ('A' for Active; 'I' for Inactive)
REMARK    1  A    between atoms: _1  and  _3
REMARK    2  A    between atoms: _3  and  _4
REMARK    3  A    between atoms: _3  and  _6
REMARK    4  A    between atoms: _6  and  _7
REMARK    5  A    between atoms: _10  and  _12
REMARK    6  A    between atoms: _12  and  _13
REMARK    7  A    between atoms: _12  and  _15
REMARK    8  A    between atoms: _15  and  _16
REMARK    9  A    between atoms: _19  and  _21
REMARK   10  A    between atoms: _21  and  _22
REMARK   11  A    between atoms: _25  and  _27
REMARK   12  A    between atoms: _27  and  _28
REMARK   13  A    between atoms: _27  and  _30
REMARK   14  A    between atoms: _30  and  _31
REMARK   15  A    between atoms: _31  and  _32
REMARK   16  A    between atoms: _34  and  _36
REMARK   17  A    between atoms: _36  and  _37
REMARK   18  A    between atoms: _36  and  _39
REMARK   19  A    between atoms: _39  and  _40
REMARK   20  A    between atoms: _43  and  _45
REMARK   21  A    between atoms: _45  and  _46
REMARK   22  A    between atoms: _45  and  _48
REMARK   23  A    between atoms: _48  and  _49
REMARK   24  A    between atoms: _49  and  _50
REMARK   25  A    between atoms: _50  and  _51
REMARK   26  A    between atoms: _51  and  _52
REMARK   27  A    between atoms: _56  and  _58
REMARK   28  A    between atoms: _58  and  _59
REMARK   29  A    between atoms: _58  and  _61
REMARK   30  A    between atoms: _61  and  _62
REMARK   31  A    between atoms: _65  and  _67
REMARK   32  A    between atoms: _67  and  _68
REMARK   33  A    between atoms: _70  and  _72
REMARK   34  A    between atoms: _72  and  _73
REMARK   35  A    between atoms: _72  and  _75
REMARK   36  A    between atoms: _75  and  _76
REMARK   37  A    between atoms: _81  and  _82
REMARK   38  A    between atoms: _85  and  _86
REMARK   39  A    between atoms: _91  and  _93
REMARK   40  A    between atoms: _93  and  _94
REMARK   41  A    between atoms: _93  and  _96
REMARK   42  A    between atoms: _96  and  _97
REMARK   43  A    between atoms: _100  and  _102
REMARK   44  A    between atoms: _102  and  _103
REMARK   45  A    between atoms: _105  and  _107
REMARK   46  A    between atoms: _107  and  _108
REMARK   47  A    between atoms: _107  and  _110
REMARK   48  A    between atoms: _110  and  _111
REMARK   49  A    between atoms: _111  and  _112
REMARK   50  A    between atoms: _112  and  _113
REMARK   51  A    between atoms: _113  and  _114
REMARK   52  A    between atoms: _118  and  _120
REMARK   53  A    between atoms: _120  and  _121
REMARK   54  A    between atoms: _120  and  _123
REMARK   55  A    between atoms: _123  and  _124
REMARK   56  A    between atoms: _127  and  _129
REMARK   57  A    between atoms: _129  and  _130
REMARK   58  A    between atoms: _129  and  _132
REMARK   59  A    between atoms: _135  and  _137
REMARK   60  A    between atoms: _137  and  _138
REMARK   61  A    between atoms: _137  and  _140
REMARK   62  A    between atoms: _140  and  _141
REMARK   63  A    between atoms: _146  and  _148
REMARK   64  A    between atoms: _148  and  _149
REMARK   65  A    between atoms: _148  and  _151
REMARK   66  A    between atoms: _151  and  _152
REMARK   67  A    between atoms: _155  and  _157
REMARK   68  A    between atoms: _157  and  _158
REMARK   69  A    between atoms: _157  and  _160
REMARK   70  A    between atoms: _160  and  _161
REMARK   71  A    between atoms: _164  and  _166
REMARK   72  A    between atoms: _166  and  _167
REMARK   73  A    between atoms: _166  and  _169
REMARK   74  A    between atoms: _169  and  _170
REMARK   75  A    between atoms: _170  and  _171
REMARK   76  A    between atoms: _174  and  _176
REMARK   77  A    between atoms: _176  and  _177
REMARK   78  A    between atoms: _176  and  _179
REMARK   79  A    between atoms: _179  and  _180
REMARK   80  A    between atoms: _180  and  _181
REMARK   81  A    between atoms: _183  and  _185
REMARK   82  A    between atoms: _185  and  _186
REMARK   83  A    between atoms: _185  and  _188
REMARK   84  A    between atoms: _188  and  _189
REMARK   85  A    between atoms: _191  and  _193
REMARK   86  A    between atoms: _193  and  _194
REMARK   87  A    between atoms: _193  and  _196
REMARK   88  A    between atoms: _196  and  _197
REMARK   89  A    between atoms: _202  and  _204
REMARK   90  A    between atoms: _204  and  _205
REMARK   91  A    between atoms: _208  and  _210
REMARK   92  A    between atoms: _210  and  _211
REMARK   93  A    between atoms: _210  and  _213
REMARK   94  A    between atoms: _213  and  _214
REMARK   95  A    between atoms: _217  and  _219
REMARK   96  A    between atoms: _219  and  _220
REMARK   97  A    between atoms: _219  and  _222
REMARK   98  A    between atoms: _225  and  _227
REMARK   99  A    between atoms: _227  and  _228
REMARK  100  A    between atoms: _231  and  _232
REMARK  101  A    between atoms: _237  and  _239
REMARK  102  A    between atoms: _239  and  _240
REMARK  103  A    between atoms: _239  and  _242
REMARK  104  A    between atoms: _242  and  _243
REMARK  105  A    between atoms: _245  and  _247
REMARK  106  A    between atoms: _247  and  _248
REMARK  107  A    between atoms: _247  and  _250
REMARK  108  A    between atoms: _250  and  _251
REMARK  109  A    between atoms: _254  and  _256
REMARK  110  A    between atoms: _256  and  _257
REMARK  111  A    between atoms: _256  and  _259
REMARK  112  A    between atoms: _259  and  _260
REMARK  113  A    between atoms: _260  and  _261
REMARK  114  A    between atoms: _261  and  _262
REMARK  115  A    between atoms: _271  and  _273
REMARK  116  A    between atoms: _273  and  _274
REMARK  117  A    between atoms: _273  and  _276
REMARK  118  A    between atoms: _276  and  _277
REMARK  119  A    between atoms: _280  and  _281
REMARK  120  A    between atoms: _286  and  _288
REMARK  121  A    between atoms: _288  and  _289
REMARK  122  A    between atoms: _291  and  _293
REMARK  123  A    between atoms: _293  and  _294
REMARK  124  A    between atoms: _293  and  _296
REMARK  125  A    between atoms: _299  and  _301
REMARK  126  A    between atoms: _301  and  _302
REMARK  127  A    between atoms: _304  and  _306
REMARK  128  A    between atoms: _306  and  _307
REMARK  129  A    between atoms: _310  and  _312
REMARK  130  A    between atoms: _312  and  _313
REMARK  131  A    between atoms: _312  and  _315
REMARK  132  A    between atoms: _315  and  _316
REMARK  133  A    between atoms: _316  and  _317
REMARK  134  A    between atoms: _322  and  _324
REMARK  135  A    between atoms: _324  and  _325
REMARK  136  A    between atoms: _327  and  _329
REMARK  137  A    between atoms: _329  and  _330
REMARK  138  A    between atoms: _332  and  _334
REMARK  139  A    between atoms: _334  and  _335
REMARK  140  A    between atoms: _334  and  _337
REMARK  141  A    between atoms: _337  and  _338
REMARK  142  A    between atoms: _341  and  _343
REMARK  143  A    between atoms: _343  and  _344
REMARK  144  A    between atoms: _343  and  _346
REMARK  145  A    between atoms: _349  and  _351
REMARK  146  A    between atoms: _351  and  _352
REMARK  147  A    between atoms: _354  and  _356
REMARK  148  A    between atoms: _356  and  _357
REMARK  149  A    between atoms: _356  and  _359
REMARK  150  A    between atoms: _359  and  _360
REMARK  151  A    between atoms: _360  and  _361
REMARK  152  A    between atoms: _361  and  _362
REMARK  153  A    between atoms: _371  and  _373
REMARK  154  A    between atoms: _373  and  _374
REMARK  155  A    between atoms: _373  and  _376
REMARK  156  A    between atoms: _376  and  _377
REMARK  157  A    between atoms: _379  and  _381
REMARK  158  A    between atoms: _381  and  _382
REMARK  159  A    between atoms: _381  and  _384
REMARK  160  A    between atoms: _384  and  _385
REMARK  161  A    between atoms: _388  and  _390
REMARK  162  A    between atoms: _390  and  _391
REMARK  163  A    between atoms: _390  and  _393
REMARK  164  A    between atoms: _393  and  _394
REMARK  165  A    between atoms: _399  and  _400
REMARK  166  A    between atoms: _402  and  _404
REMARK  167  A    between atoms: _404  and  _405
REMARK  168  A    between atoms: _404  and  _407
REMARK  169  A    between atoms: _407  and  _408
REMARK  170  A    between atoms: _411  and  _413
REMARK  171  A    between atoms: _413  and  _414
REMARK  172  A    between atoms: _417  and  _419
REMARK  173  A    between atoms: _419  and  _420
REMARK  174  A    between atoms: _419  and  _422
REMARK  175  A    between atoms: _422  and  _423
REMARK  176  A    between atoms: _426  and  _428
REMARK  177  A    between atoms: _428  and  _429
REMARK  178  A    between atoms: _428  and  _431
REMARK  179  A    between atoms: _431  and  _432
REMARK  180  A    between atoms: _436  and  _437
REMARK  181  A    between atoms: _442  and  _444
REMARK  182  A    between atoms: _444  and  _445
REMARK  183  A    between atoms: _444  and  _447
REMARK  184  A    between atoms: _447  and  _448
REMARK  185  A    between atoms: _448  and  _449
REMARK  186  A    between atoms: _452  and  _454
REMARK  187  A    between atoms: _454  and  _455
REMARK  188  A    between atoms: _454  and  _457
REMARK  189  A    between atoms: _457  and  _458
REMARK  190  A    between atoms: _461  and  _463
REMARK  191  A    between atoms: _463  and  _464
REMARK  192  A    between atoms: _463  and  _466
REMARK  193  A    between atoms: _466  and  _467
REMARK  194  A    between atoms: _472  and  _474
REMARK  195  A    between atoms: _474  and  _475
REMARK  196  A    between atoms: _474  and  _477
REMARK  197  A    between atoms: _477  and  _478
REMARK  198  A    between atoms: _478  and  _479
REMARK  199  A    between atoms: _479  and  _480
REMARK  200  A    between atoms: _480  and  _481
REMARK  201  A    between atoms: _485  and  _487
REMARK  202  A    between atoms: _487  and  _488
REMARK  203  A    between atoms: _487  and  _490
REMARK  204  A    between atoms: _490  and  _491
REMARK                            x       y       z     vdW  Elec       q    Type
REMARK                         _______ _______ _______ _____ _____    ______ ____
ROOT
ATOM      1  O   HOH     1      14.549   1.103   2.706  0.00  0.00    +0.000 OA
ENDROOT
TORSDOF 0
REMARK  Name = ../refined-set-2016/3g1v/3g1v_pocket.pdb
REMARK  204 active torsions:
REMARK  status: ('A' for Active; 'I' for Inactive)
REMARK    1  A    between atoms: _1  and  _3
REMARK    2  A    between atoms: _3  and  _4
REMARK    3  A    between atoms: _3  and  _6
REMARK    4  A    between atoms: _6  and  _7
REMARK    5  A    between atoms: _10  and  _12
REMARK    6  A    between atoms: _12  and  _13
REMARK    7  A    between atoms: _12  and  _15
REMARK    8  A    between atoms: _15  and  _16
REMARK    9  A    between atoms: _19  and  _21
REMARK   10  A    between atoms: _21  and  _22
REMARK   11  A    between atoms: _25  and  _27
REMARK   12  A    between atoms: _27  and  _28
REMARK   13  A    between atoms: _27  and  _30
REMARK   14  A    between atoms: _30  and  _31
REMARK   15  A    between atoms: _31  and  _32
REMARK   16  A    between atoms: _34  and  _36
REMARK   17  A    between atoms: _36  and  _37
REMARK   18  A    between atoms: _36  and  _39
REMARK   19  A    between atoms: _39  and  _40
REMARK   20  A    between atoms: _43  and  _45
REMARK   21  A    between atoms: _45  and  _46
REMARK   22  A    between atoms: _45  and  _48
REMARK   23  A    between atoms: _48  and  _49
REMARK   24  A    between atoms: _49  and  _50
REMARK   25  A    between atoms: _50  and  _51
REMARK   26  A    between atoms: _51  and  _52
REMARK   27  A    between atoms: _56  and  _58
REMARK   28  A    between atoms: _58  and  _59
REMARK   29  A    between atoms: _58  and  _61
REMARK   30  A    between atoms: _61  and  _62
REMARK   31  A    between atoms: _65  and  _67
REMARK   32  A    between atoms: _67  and  _68
REMARK   33  A    between atoms: _70  and  _72
REMARK   34  A    between atoms: _72  and  _73
REMARK   35  A    between atoms: _72  and  _75
REMARK   36  A    between atoms: _75  and  _76
REMARK   37  A    between atoms: _81  and  _82
REMARK   38  A    between atoms: _85  and  _86
REMARK   39  A    between atoms: _91  and  _93
REMARK   40  A    between atoms: _93  and  _94
REMARK   41  A    between atoms: _93  and  _96
REMARK   42  A    between atoms: _96  and  _97
REMARK   43  A    between atoms: _100  and  _102
REMARK   44  A    between atoms: _102  and  _103
REMARK   45  A    between atoms: _105  and  _107
REMARK   46  A    between atoms: _107  and  _108
REMARK   47  A    between atoms: _107  and  _110
REMARK   48  A    between atoms: _110  and  _111
REMARK   49  A    between atoms: _111  and  _112
REMARK   50  A    between atoms: _112  and  _113
REMARK   51  A    between atoms: _113  and  _114
REMARK   52  A    between atoms: _118  and  _120
REMARK   53  A    between atoms: _120  and  _121
REMARK   54  A    between atoms: _120  and  _123
REMARK   55  A    between atoms: _123  and  _124
REMARK   56  A    between atoms: _127  and  _129
REMARK   57  A    between atoms: _129  and  _130
REMARK   58  A    between atoms: _129  and  _132
REMARK   59  A    between atoms: _135  and  _137
REMARK   60  A    between atoms: _137  and  _138
REMARK   61  A    between atoms: _137  and  _140
REMARK   62  A    between atoms: _140  and  _141
REMARK   63  A    between atoms: _146  and  _148
REMARK   64  A    between atoms: _148  and  _149
REMARK   65  A    between atoms: _148  and  _151
REMARK   66  A    between atoms: _151  and  _152
REMARK   67  A    between atoms: _155  and  _157
REMARK   68  A    between atoms: _157  and  _158
REMARK   69  A    between atoms: _157  and  _160
REMARK   70  A    between atoms: _160  and  _161
REMARK   71  A    between atoms: _164  and  _166
REMARK   72  A    between atoms: _166  and  _167
REMARK   73  A    between atoms: _166  and  _169
REMARK   74  A    between atoms: _169  and  _170
REMARK   75  A    between atoms: _170  and  _171
REMARK   76  A    between atoms: _174  and  _176
REMARK   77  A    between atoms: _176  and  _177
REMARK   78  A    between atoms: _176  and  _179
REMARK   79  A    between atoms: _179  and  _180
REMARK   80  A    between atoms: _180  and  _181
REMARK   81  A    between atoms: _183  and  _185
REMARK   82  A    between atoms: _185  and  _186
REMARK   83  A    between atoms: _185  and  _188
REMARK   84  A    between atoms: _188  and  _189
REMARK   85  A    between atoms: _191  and  _193
REMARK   86  A    between atoms: _193  and  _194
REMARK   87  A    between atoms: _193  and  _196
REMARK   88  A    between atoms: _196  and  _197
REMARK   89  A    between atoms: _202  and  _204
REMARK   90  A    between atoms: _204  and  _205
REMARK   91  A    between atoms: _208  and  _210
REMARK   92  A    between atoms: _210  and  _211
REMARK   93  A    between atoms: _210  and  _213
REMARK   94  A    between atoms: _213  and  _214
REMARK   95  A    between atoms: _217  and  _219
REMARK   96  A    between atoms: _219  and  _220
REMARK   97  A    between atoms: _219  and  _222
REMARK   98  A    between atoms: _225  and  _227
REMARK   99  A    between atoms: _227  and  _228
REMARK  100  A    between atoms: _231  and  _232
REMARK  101  A    between atoms: _237  and  _239
REMARK  102  A    between atoms: _239  and  _240
REMARK  103  A    between atoms: _239  and  _242
REMARK  104  A    between atoms: _242  and  _243
REMARK  105  A    between atoms: _245  and  _247
REMARK  106  A    between atoms: _247  and  _248
REMARK  107  A    between atoms: _247  and  _250
REMARK  108  A    between atoms: _250  and  _251
REMARK  109  A    between atoms: _254  and  _256
REMARK  110  A    between atoms: _256  and  _257
REMARK  111  A    between atoms: _256  and  _259
REMARK  112  A    between atoms: _259  and  _260
REMARK  113  A    between atoms: _260  and  _261
REMARK  114  A    between atoms: _261  and  _262
REMARK  115  A    between atoms: _271  and  _273
REMARK  116  A    between atoms: _273  and  _274
REMARK  117  A    between atoms: _273  and  _276
REMARK  118  A    between atoms: _276  and  _277
REMARK  119  A    between atoms: _280  and  _281
REMARK  120  A    between atoms: _286  and  _288
REMARK  121  A    between atoms: _288  and  _289
REMARK  122  A    between atoms: _291  and  _293
REMARK  123  A    between atoms: _293  and  _294
REMARK  124  A    between atoms: _293  and  _296
REMARK  125  A    between atoms: _299  and  _301
REMARK  126  A    between atoms: _301  and  _302
REMARK  127  A    between atoms: _304  and  _306
REMARK  128  A    between atoms: _306  and  _307
REMARK  129  A    between atoms: _310  and  _312
REMARK  130  A    between atoms: _312  and  _313
REMARK  131  A    between atoms: _312  and  _315
REMARK  132  A    between atoms: _315  and  _316
REMARK  133  A    between atoms: _316  and  _317
REMARK  134  A    between atoms: _322  and  _324
REMARK  135  A    between atoms: _324  and  _325
REMARK  136  A    between atoms: _327  and  _329
REMARK  137  A    between atoms: _329  and  _330
REMARK  138  A    between atoms: _332  and  _334
REMARK  139  A    between atoms: _334  and  _335
REMARK  140  A    between atoms: _334  and  _337
REMARK  141  A    between atoms: _337  and  _338
REMARK  142  A    between atoms: _341  and  _343
REMARK  143  A    between atoms: _343  and  _344
REMARK  144  A    between atoms: _343  and  _346
REMARK  145  A    between atoms: _349  and  _351
REMARK  146  A    between atoms: _351  and  _352
REMARK  147  A    between atoms: _354  and  _356
REMARK  148  A    between atoms: _356  and  _357
REMARK  149  A    between atoms: _356  and  _359
REMARK  150  A    between atoms: _359  and  _360
REMARK  151  A    between atoms: _360  and  _361
REMARK  152  A    between atoms: _361  and  _362
REMARK  153  A    between atoms: _371  and  _373
REMARK  154  A    between atoms: _373  and  _374
REMARK  155  A    between atoms: _373  and  _376
REMARK  156  A    between atoms: _376  and  _377
REMARK  157  A    between atoms: _379  and  _381
REMARK  158  A    between atoms: _381  and  _382
REMARK  159  A    between atoms: _381  and  _384
REMARK  160  A    between atoms: _384  and  _385
REMARK  161  A    between atoms: _388  and  _390
REMARK  162  A    between atoms: _390  and  _391
REMARK  163  A    between atoms: _390  and  _393
REMARK  164  A    between atoms: _393  and  _394
REMARK  165  A    between atoms: _399  and  _400
REMARK  166  A    between atoms: _402  and  _404
REMARK  167  A    between atoms: _404  and  _405
REMARK  168  A    between atoms: _404  and  _407
REMARK  169  A    between atoms: _407  and  _408
REMARK  170  A    between atoms: _411  and  _413
REMARK  171  A    between atoms: _413  and  _414
REMARK  172  A    between atoms: _417  and  _419
REMARK  173  A    between atoms: _419  and  _420
REMARK  174  A    between atoms: _419  and  _422
REMARK  175  A    between atoms: _422  and  _423
REMARK  176  A    between atoms: _426  and  _428
REMARK  177  A    between atoms: _428  and  _429
REMARK  178  A    between atoms: _428  and  _431
REMARK  179  A    between atoms: _431  and  _432
REMARK  180  A    between atoms: _436  and  _437
REMARK  181  A    between atoms: _442  and  _444
REMARK  182  A    between atoms: _444  and  _445
REMARK  183  A    between atoms: _444  and  _447
REMARK  184  A    between atoms: _447  and  _448
REMARK  185  A    between atoms: _448  and  _449
REMARK  186  A    between atoms: _452  and  _454
REMARK  187  A    between atoms: _454  and  _455
REMARK  188  A    between atoms: _454  and  _457
REMARK  189  A    between atoms: _457  and  _458
REMARK  190  A    between atoms: _461  and  _463
REMARK  191  A    between atoms: _463  and  _464
REMARK  192  A    between atoms: _463  and  _466
REMARK  193  A    between atoms: _466  and  _467
REMARK  194  A    between atoms: _472  and  _474
REMARK  195  A    between atoms: _474  and  _475
REMARK  196  A    between atoms: _474  and  _477
REMARK  197  A    between atoms: _477  and  _478
REMARK  198  A    between atoms: _478  and  _479
REMARK  199  A    between atoms: _479  and  _480
REMARK  200  A    between atoms: _480  and  _481
REMARK  201  A    between atoms: _485  and  _487
REMARK  202  A    between atoms: _487  and  _488
REMARK  203  A    between atoms: _487  and  _490
REMARK  204  A    between atoms: _490  and  _491
REMARK                            x       y       z     vdW  Elec       q    Type
REMARK                         _______ _______ _______ _____ _____    ______ ____
ROOT
ATOM      1  O   HOH     1       9.797  -2.088  13.305  0.00  0.00    +0.000 OA
ENDROOT
TORSDOF 0
REMARK  Name = ../refined-set-2016/3g1v/3g1v_pocket.pdb
REMARK  204 active torsions:
REMARK  status: ('A' for Active; 'I' for Inactive)
REMARK    1  A    between atoms: _1  and  _3
REMARK    2  A    between atoms: _3  and  _4
REMARK    3  A    between atoms: _3  and  _6
REMARK    4  A    between atoms: _6  and  _7
REMARK    5  A    between atoms: _10  and  _12
REMARK    6  A    between atoms: _12  and  _13
REMARK    7  A    between atoms: _12  and  _15
REMARK    8  A    between atoms: _15  and  _16
REMARK    9  A    between atoms: _19  and  _21
REMARK   10  A    between atoms: _21  and  _22
REMARK   11  A    between atoms: _25  and  _27
REMARK   12  A    between atoms: _27  and  _28
REMARK   13  A    between atoms: _27  and  _30
REMARK   14  A    between atoms: _30  and  _31
REMARK   15  A    between atoms: _31  and  _32
REMARK   16  A    between atoms: _34  and  _36
REMARK   17  A    between atoms: _36  and  _37
REMARK   18  A    between atoms: _36  and  _39
REMARK   19  A    between atoms: _39  and  _40
REMARK   20  A    between atoms: _43  and  _45
REMARK   21  A    between atoms: _45  and  _46
REMARK   22  A    between atoms: _45  and  _48
REMARK   23  A    between atoms: _48  and  _49
REMARK   24  A    between atoms: _49  and  _50
REMARK   25  A    between atoms: _50  and  _51
REMARK   26  A    between atoms: _51  and  _52
REMARK   27  A    between atoms: _56  and  _58
REMARK   28  A    between atoms: _58  and  _59
REMARK   29  A    between atoms: _58  and  _61
REMARK   30  A    between atoms: _61  and  _62
REMARK   31  A    between atoms: _65  and  _67
REMARK   32  A    between atoms: _67  and  _68
REMARK   33  A    between atoms: _70  and  _72
REMARK   34  A    between atoms: _72  and  _73
REMARK   35  A    between atoms: _72  and  _75
REMARK   36  A    between atoms: _75  and  _76
REMARK   37  A    between atoms: _81  and  _82
REMARK   38  A    between atoms: _85  and  _86
REMARK   39  A    between atoms: _91  and  _93
REMARK   40  A    between atoms: _93  and  _94
REMARK   41  A    between atoms: _93  and  _96
REMARK   42  A    between atoms: _96  and  _97
REMARK   43  A    between atoms: _100  and  _102
REMARK   44  A    between atoms: _102  and  _103
REMARK   45  A    between atoms: _105  and  _107
REMARK   46  A    between atoms: _107  and  _108
REMARK   47  A    between atoms: _107  and  _110
REMARK   48  A    between atoms: _110  and  _111
REMARK   49  A    between atoms: _111  and  _112
REMARK   50  A    between atoms: _112  and  _113
REMARK   51  A    between atoms: _113  and  _114
REMARK   52  A    between atoms: _118  and  _120
REMARK   53  A    between atoms: _120  and  _121
REMARK   54  A    between atoms: _120  and  _123
REMARK   55  A    between atoms: _123  and  _124
REMARK   56  A    between atoms: _127  and  _129
REMARK   57  A    between atoms: _129  and  _130
REMARK   58  A    between atoms: _129  and  _132
REMARK   59  A    between atoms: _135  and  _137
REMARK   60  A    between atoms: _137  and  _138
REMARK   61  A    between atoms: _137  and  _140
REMARK   62  A    between atoms: _140  and  _141
REMARK   63  A    between atoms: _146  and  _148
REMARK   64  A    between atoms: _148  and  _149
REMARK   65  A    between atoms: _148  and  _151
REMARK   66  A    between atoms: _151  and  _152
REMARK   67  A    between atoms: _155  and  _157
REMARK   68  A    between atoms: _157  and  _158
REMARK   69  A    between atoms: _157  and  _160
REMARK   70  A    between atoms: _160  and  _161
REMARK   71  A    between atoms: _164  and  _166
REMARK   72  A    between atoms: _166  and  _167
REMARK   73  A    between atoms: _166  and  _169
REMARK   74  A    between atoms: _169  and  _170
REMARK   75  A    between atoms: _170  and  _171
REMARK   76  A    between atoms: _174  and  _176
REMARK   77  A    between atoms: _176  and  _177
REMARK   78  A    between atoms: _176  and  _179
REMARK   79  A    between atoms: _179  and  _180
REMARK   80  A    between atoms: _180  and  _181
REMARK   81  A    between atoms: _183  and  _185
REMARK   82  A    between atoms: _185  and  _186
REMARK   83  A    between atoms: _185  and  _188
REMARK   84  A    between atoms: _188  and  _189
REMARK   85  A    between atoms: _191  and  _193
REMARK   86  A    between atoms: _193  and  _194
REMARK   87  A    between atoms: _193  and  _196
REMARK   88  A    between atoms: _196  and  _197
REMARK   89  A    between atoms: _202  and  _204
REMARK   90  A    between atoms: _204  and  _205
REMARK   91  A    between atoms: _208  and  _210
REMARK   92  A    between atoms: _210  and  _211
REMARK   93  A    between atoms: _210  and  _213
REMARK   94  A    between atoms: _213  and  _214
REMARK   95  A    between atoms: _217  and  _219
REMARK   96  A    between atoms: _219  and  _220
REMARK   97  A    between atoms: _219  and  _222
REMARK   98  A    between atoms: _225  and  _227
REMARK   99  A    between atoms: _227  and  _228
REMARK  100  A    between atoms: _231  and  _232
REMARK  101  A    between atoms: _237  and  _239
REMARK  102  A    between atoms: _239  and  _240
REMARK  103  A    between atoms: _239  and  _242
REMARK  104  A    between atoms: _242  and  _243
REMARK  105  A    between atoms: _245  and  _247
REMARK  106  A    between atoms: _247  and  _248
REMARK  107  A    between atoms: _247  and  _250
REMARK  108  A    between atoms: _250  and  _251
REMARK  109  A    between atoms: _254  and  _256
REMARK  110  A    between atoms: _256  and  _257
REMARK  111  A    between atoms: _256  and  _259
REMARK  112  A    between atoms: _259  and  _260
REMARK  113  A    between atoms: _260  and  _261
REMARK  114  A    between atoms: _261  and  _262
REMARK  115  A    between atoms: _271  and  _273
REMARK  116  A    between atoms: _273  and  _274
REMARK  117  A    between atoms: _273  and  _276
REMARK  118  A    between atoms: _276  and  _277
REMARK  119  A    between atoms: _280  and  _281
REMARK  120  A    between atoms: _286  and  _288
REMARK  121  A    between atoms: _288  and  _289
REMARK  122  A    between atoms: _291  and  _293
REMARK  123  A    between atoms: _293  and  _294
REMARK  124  A    between atoms: _293  and  _296
REMARK  125  A    between atoms: _299  and  _301
REMARK  126  A    between atoms: _301  and  _302
REMARK  127  A    between atoms: _304  and  _306
REMARK  128  A    between atoms: _306  and  _307
REMARK  129  A    between atoms: _310  and  _312
REMARK  130  A    between atoms: _312  and  _313
REMARK  131  A    between atoms: _312  and  _315
REMARK  132  A    between atoms: _315  and  _316
REMARK  133  A    between atoms: _316  and  _317
REMARK  134  A    between atoms: _322  and  _324
REMARK  135  A    between atoms: _324  and  _325
REMARK  136  A    between atoms: _327  and  _329
REMARK  137  A    between atoms: _329  and  _330
REMARK  138  A    between atoms: _332  and  _334
REMARK  139  A    between atoms: _334  and  _335
REMARK  140  A    between atoms: _334  and  _337
REMARK  141  A    between atoms: _337  and  _338
REMARK  142  A    between atoms: _341  and  _343
REMARK  143  A    between atoms: _343  and  _344
REMARK  144  A    between atoms: _343  and  _346
REMARK  145  A    between atoms: _349  and  _351
REMARK  146  A    between atoms: _351  and  _352
REMARK  147  A    between atoms: _354  and  _356
REMARK  148  A    between atoms: _356  and  _357
REMARK  149  A    between atoms: _356  and  _359
REMARK  150  A    between atoms: _359  and  _360
REMARK  151  A    between atoms: _360  and  _361
REMARK  152  A    between atoms: _361  and  _362
REMARK  153  A    between atoms: _371  and  _373
REMARK  154  A    between atoms: _373  and  _374
REMARK  155  A    between atoms: _373  and  _376
REMARK  156  A    between atoms: _376  and  _377
REMARK  157  A    between atoms: _379  and  _381
REMARK  158  A    between atoms: _381  and  _382
REMARK  159  A    between atoms: _381  and  _384
REMARK  160  A    between atoms: _384  and  _385
REMARK  161  A    between atoms: _388  and  _390
REMARK  162  A    between atoms: _390  and  _391
REMARK  163  A    between atoms: _390  and  _393
REMARK  164  A    between atoms: _393  and  _394
REMARK  165  A    between atoms: _399  and  _400
REMARK  166  A    between atoms: _402  and  _404
REMARK  167  A    between atoms: _404  and  _405
REMARK  168  A    between atoms: _404  and  _407
REMARK  169  A    between atoms: _407  and  _408
REMARK  170  A    between atoms: _411  and  _413
REMARK  171  A    between atoms: _413  and  _414
REMARK  172  A    between atoms: _417  and  _419
REMARK  173  A    between atoms: _419  and  _420
REMARK  174  A    between atoms: _419  and  _422
REMARK  175  A    between atoms: _422  and  _423
REMARK  176  A    between atoms: _426  and  _428
REMARK  177  A    between atoms: _428  and  _429
REMARK  178  A    between atoms: _428  and  _431
REMARK  179  A    between atoms: _431  and  _432
REMARK  180  A    between atoms: _436  and  _437
REMARK  181  A    between atoms: _442  and  _444
REMARK  182  A    between atoms: _444  and  _445
REMARK  183  A    between atoms: _444  and  _447
REMARK  184  A    between atoms: _447  and  _448
REMARK  185  A    between atoms: _448  and  _449
REMARK  186  A    between atoms: _452  and  _454
REMARK  187  A    between atoms: _454  and  _455
REMARK  188  A    between atoms: _454  and  _457
REMARK  189  A    between atoms: _457  and  _458
REMARK  190  A    between atoms: _461  and  _463
REMARK  191  A    between atoms: _463  and  _464
REMARK  192  A    between atoms: _463  and  _466
REMARK  193  A    between atoms: _466  and  _467
REMARK  194  A    between atoms: _472  and  _474
REMARK  195  A    between atoms: _474  and  _475
REMARK  196  A    between atoms: _474  and  _477
REMARK  197  A    between atoms: _477  and  _478
REMARK  198  A    between atoms: _478  and  _479
REMARK  199  A    between atoms: _479  and  _480
REMARK  200  A    between atoms: _480  and  _481
REMARK  201  A    between atoms: _485  and  _487
REMARK  202  A    between atoms: _487  and  _488
REMARK  203  A    between atoms: _487  and  _490
REMARK  204  A    between atoms: _490  and  _491
REMARK                            x       y       z     vdW  Elec       q    Type
REMARK                         _______ _______ _______ _____ _____    ______ ____
ROOT
ATOM      1  O   HOH     1      14.593   1.097   0.074  0.00  0.00    +0.000 OA
ENDROOT
TORSDOF 0
REMARK  Name = ../refined-set-2016/3g1v/3g1v_pocket.pdb
REMARK  204 active torsions:
REMARK  status: ('A' for Active; 'I' for Inactive)
REMARK    1  A    between atoms: _1  and  _3
REMARK    2  A    between atoms: _3  and  _4
REMARK    3  A    between atoms: _3  and  _6
REMARK    4  A    between atoms: _6  and  _7
REMARK    5  A    between atoms: _10  and  _12
REMARK    6  A    between atoms: _12  and  _13
REMARK    7  A    between atoms: _12  and  _15
REMARK    8  A    between atoms: _15  and  _16
REMARK    9  A    between atoms: _19  and  _21
REMARK   10  A    between atoms: _21  and  _22
REMARK   11  A    between atoms: _25  and  _27
REMARK   12  A    between atoms: _27  and  _28
REMARK   13  A    between atoms: _27  and  _30
REMARK   14  A    between atoms: _30  and  _31
REMARK   15  A    between atoms: _31  and  _32
REMARK   16  A    between atoms: _34  and  _36
REMARK   17  A    between atoms: _36  and  _37
REMARK   18  A    between atoms: _36  and  _39
REMARK   19  A    between atoms: _39  and  _40
REMARK   20  A    between atoms: _43  and  _45
REMARK   21  A    between atoms: _45  and  _46
REMARK   22  A    between atoms: _45  and  _48
REMARK   23  A    between atoms: _48  and  _49
REMARK   24  A    between atoms: _49  and  _50
REMARK   25  A    between atoms: _50  and  _51
REMARK   26  A    between atoms: _51  and  _52
REMARK   27  A    between atoms: _56  and  _58
REMARK   28  A    between atoms: _58  and  _59
REMARK   29  A    between atoms: _58  and  _61
REMARK   30  A    between atoms: _61  and  _62
REMARK   31  A    between atoms: _65  and  _67
REMARK   32  A    between atoms: _67  and  _68
REMARK   33  A    between atoms: _70  and  _72
REMARK   34  A    between atoms: _72  and  _73
REMARK   35  A    between atoms: _72  and  _75
REMARK   36  A    between atoms: _75  and  _76
REMARK   37  A    between atoms: _81  and  _82
REMARK   38  A    between atoms: _85  and  _86
REMARK   39  A    between atoms: _91  and  _93
REMARK   40  A    between atoms: _93  and  _94
REMARK   41  A    between atoms: _93  and  _96
REMARK   42  A    between atoms: _96  and  _97
REMARK   43  A    between atoms: _100  and  _102
REMARK   44  A    between atoms: _102  and  _103
REMARK   45  A    between atoms: _105  and  _107
REMARK   46  A    between atoms: _107  and  _108
REMARK   47  A    between atoms: _107  and  _110
REMARK   48  A    between atoms: _110  and  _111
REMARK   49  A    between atoms: _111  and  _112
REMARK   50  A    between atoms: _112  and  _113
REMARK   51  A    between atoms: _113  and  _114
REMARK   52  A    between atoms: _118  and  _120
REMARK   53  A    between atoms: _120  and  _121
REMARK   54  A    between atoms: _120  and  _123
REMARK   55  A    between atoms: _123  and  _124
REMARK   56  A    between atoms: _127  and  _129
REMARK   57  A    between atoms: _129  and  _130
REMARK   58  A    between atoms: _129  and  _132
REMARK   59  A    between atoms: _135  and  _137
REMARK   60  A    between atoms: _137  and  _138
REMARK   61  A    between atoms: _137  and  _140
REMARK   62  A    between atoms: _140  and  _141
REMARK   63  A    between atoms: _146  and  _148
REMARK   64  A    between atoms: _148  and  _149
REMARK   65  A    between atoms: _148  and  _151
REMARK   66  A    between atoms: _151  and  _152
REMARK   67  A    between atoms: _155  and  _157
REMARK   68  A    between atoms: _157  and  _158
REMARK   69  A    between atoms: _157  and  _160
REMARK   70  A    between atoms: _160  and  _161
REMARK   71  A    between atoms: _164  and  _166
REMARK   72  A    between atoms: _166  and  _167
REMARK   73  A    between atoms: _166  and  _169
REMARK   74  A    between atoms: _169  and  _170
REMARK   75  A    between atoms: _170  and  _171
REMARK   76  A    between atoms: _174  and  _176
REMARK   77  A    between atoms: _176  and  _177
REMARK   78  A    between atoms: _176  and  _179
REMARK   79  A    between atoms: _179  and  _180
REMARK   80  A    between atoms: _180  and  _181
REMARK   81  A    between atoms: _183  and  _185
REMARK   82  A    between atoms: _185  and  _186
REMARK   83  A    between atoms: _185  and  _188
REMARK   84  A    between atoms: _188  and  _189
REMARK   85  A    between atoms: _191  and  _193
REMARK   86  A    between atoms: _193  and  _194
REMARK   87  A    between atoms: _193  and  _196
REMARK   88  A    between atoms: _196  and  _197
REMARK   89  A    between atoms: _202  and  _204
REMARK   90  A    between atoms: _204  and  _205
REMARK   91  A    between atoms: _208  and  _210
REMARK   92  A    between atoms: _210  and  _211
REMARK   93  A    between atoms: _210  and  _213
REMARK   94  A    between atoms: _213  and  _214
REMARK   95  A    between atoms: _217  and  _219
REMARK   96  A    between atoms: _219  and  _220
REMARK   97  A    between atoms: _219  and  _222
REMARK   98  A    between atoms: _225  and  _227
REMARK   99  A    between atoms: _227  and  _228
REMARK  100  A    between atoms: _231  and  _232
REMARK  101  A    between atoms: _237  and  _239
REMARK  102  A    between atoms: _239  and  _240
REMARK  103  A    between atoms: _239  and  _242
REMARK  104  A    between atoms: _242  and  _243
REMARK  105  A    between atoms: _245  and  _247
REMARK  106  A    between atoms: _247  and  _248
REMARK  107  A    between atoms: _247  and  _250
REMARK  108  A    between atoms: _250  and  _251
REMARK  109  A    between atoms: _254  and  _256
REMARK  110  A    between atoms: _256  and  _257
REMARK  111  A    between atoms: _256  and  _259
REMARK  112  A    between atoms: _259  and  _260
REMARK  113  A    between atoms: _260  and  _261
REMARK  114  A    between atoms: _261  and  _262
REMARK  115  A    between atoms: _271  and  _273
REMARK  116  A    between atoms: _273  and  _274
REMARK  117  A    between atoms: _273  and  _276
REMARK  118  A    between atoms: _276  and  _277
REMARK  119  A    between atoms: _280  and  _281
REMARK  120  A    between atoms: _286  and  _288
REMARK  121  A    between atoms: _288  and  _289
REMARK  122  A    between atoms: _291  and  _293
REMARK  123  A    between atoms: _293  and  _294
REMARK  124  A    between atoms: _293  and  _296
REMARK  125  A    between atoms: _299  and  _301
REMARK  126  A    between atoms: _301  and  _302
REMARK  127  A    between atoms: _304  and  _306
REMARK  128  A    between atoms: _306  and  _307
REMARK  129  A    between atoms: _310  and  _312
REMARK  130  A    between atoms: _312  and  _313
REMARK  131  A    between atoms: _312  and  _315
REMARK  132  A    between atoms: _315  and  _316
REMARK  133  A    between atoms: _316  and  _317
REMARK  134  A    between atoms: _322  and  _324
REMARK  135  A    between atoms: _324  and  _325
REMARK  136  A    between atoms: _327  and  _329
REMARK  137  A    between atoms: _329  and  _330
REMARK  138  A    between atoms: _332  and  _334
REMARK  139  A    between atoms: _334  and  _335
REMARK  140  A    between atoms: _334  and  _337
REMARK  141  A    between atoms: _337  and  _338
REMARK  142  A    between atoms: _341  and  _343
REMARK  143  A    between atoms: _343  and  _344
REMARK  144  A    between atoms: _343  and  _346
REMARK  145  A    between atoms: _349  and  _351
REMARK  146  A    between atoms: _351  and  _352
REMARK  147  A    between atoms: _354  and  _356
REMARK  148  A    between atoms: _356  and  _357
REMARK  149  A    between atoms: _356  and  _359
REMARK  150  A    between atoms: _359  and  _360
REMARK  151  A    between atoms: _360  and  _361
REMARK  152  A    between atoms: _361  and  _362
REMARK  153  A    between atoms: _371  and  _373
REMARK  154  A    between atoms: _373  and  _374
REMARK  155  A    between atoms: _373  and  _376
REMARK  156  A    between atoms: _376  and  _377
REMARK  157  A    between atoms: _379  and  _381
REMARK  158  A    between atoms: _381  and  _382
REMARK  159  A    between atoms: _381  and  _384
REMARK  160  A    between atoms: _384  and  _385
REMARK  161  A    between atoms: _388  and  _390
REMARK  162  A    between atoms: _390  and  _391
REMARK  163  A    between atoms: _390  and  _393
REMARK  164  A    between atoms: _393  and  _394
REMARK  165  A    between atoms: _399  and  _400
REMARK  166  A    between atoms: _402  and  _404
REMARK  167  A    between atoms: _404  and  _405
REMARK  168  A    between atoms: _404  and  _407
REMARK  169  A    between atoms: _407  and  _408
REMARK  170  A    between atoms: _411  and  _413
REMARK  171  A    between atoms: _413  and  _414
REMARK  172  A    between atoms: _417  and  _419
REMARK  173  A    between atoms: _419  and  _420
REMARK  174  A    between atoms: _419  and  _422
REMARK  175  A    between atoms: _422  and  _423
REMARK  176  A    between atoms: _426  and  _428
REMARK  177  A    between atoms: _428  and  _429
REMARK  178  A    between atoms: _428  and  _431
REMARK  179  A    between atoms: _431  and  _432
REMARK  180  A    between atoms: _436  and  _437
REMARK  181  A    between atoms: _442  and  _444
REMARK  182  A    between atoms: _444  and  _445
REMARK  183  A    between atoms: _444  and  _447
REMARK  184  A    between atoms: _447  and  _448
REMARK  185  A    between atoms: _448  and  _449
REMARK  186  A    between atoms: _452  and  _454
REMARK  187  A    between atoms: _454  and  _455
REMARK  188  A    between atoms: _454  and  _457
REMARK  189  A    between atoms: _457  and  _458
REMARK  190  A    between atoms: _461  and  _463
REMARK  191  A    between atoms: _463  and  _464
REMARK  192  A    between atoms: _463  and  _466
REMARK  193  A    between atoms: _466  and  _467
REMARK  194  A    between atoms: _472  and  _474
REMARK  195  A    between atoms: _474  and  _475
REMARK  196  A    between atoms: _474  and  _477
REMARK  197  A    between atoms: _477  and  _478
REMARK  198  A    between atoms: _478  and  _479
REMARK  199  A    between atoms: _479  and  _480
REMARK  200  A    between atoms: _480  and  _481
REMARK  201  A    between atoms: _485  and  _487
REMARK  202  A    between atoms: _487  and  _488
REMARK  203  A    between atoms: _487  and  _490
REMARK  204  A    between atoms: _490  and  _491
REMARK                            x       y       z     vdW  Elec       q    Type
REMARK                         _______ _______ _______ _____ _____    ______ ____
ROOT
ATOM      1  O   HOH     1       6.822   2.128  10.736  0.00  0.00    +0.000 OA
ENDROOT
TORSDOF 0
REMARK  Name = ../refined-set-2016/3g1v/3g1v_pocket.pdb
REMARK  204 active torsions:
REMARK  status: ('A' for Active; 'I' for Inactive)
REMARK    1  A    between atoms: _1  and  _3
REMARK    2  A    between atoms: _3  and  _4
REMARK    3  A    between atoms: _3  and  _6
REMARK    4  A    between atoms: _6  and  _7
REMARK    5  A    between atoms: _10  and  _12
REMARK    6  A    between atoms: _12  and  _13
REMARK    7  A    between atoms: _12  and  _15
REMARK    8  A    between atoms: _15  and  _16
REMARK    9  A    between atoms: _19  and  _21
REMARK   10  A    between atoms: _21  and  _22
REMARK   11  A    between atoms: _25  and  _27
REMARK   12  A    between atoms: _27  and  _28
REMARK   13  A    between atoms: _27  and  _30
REMARK   14  A    between atoms: _30  and  _31
REMARK   15  A    between atoms: _31  and  _32
REMARK   16  A    between atoms: _34  and  _36
REMARK   17  A    between atoms: _36  and  _37
REMARK   18  A    between atoms: _36  and  _39
REMARK   19  A    between atoms: _39  and  _40
REMARK   20  A    between atoms: _43  and  _45
REMARK   21  A    between atoms: _45  and  _46
REMARK   22  A    between atoms: _45  and  _48
REMARK   23  A    between atoms: _48  and  _49
REMARK   24  A    between atoms: _49  and  _50
REMARK   25  A    between atoms: _50  and  _51
REMARK   26  A    between atoms: _51  and  _52
REMARK   27  A    between atoms: _56  and  _58
REMARK   28  A    between atoms: _58  and  _59
REMARK   29  A    between atoms: _58  and  _61
REMARK   30  A    between atoms: _61  and  _62
REMARK   31  A    between atoms: _65  and  _67
REMARK   32  A    between atoms: _67  and  _68
REMARK   33  A    between atoms: _70  and  _72
REMARK   34  A    between atoms: _72  and  _73
REMARK   35  A    between atoms: _72  and  _75
REMARK   36  A    between atoms: _75  and  _76
REMARK   37  A    between atoms: _81  and  _82
REMARK   38  A    between atoms: _85  and  _86
REMARK   39  A    between atoms: _91  and  _93
REMARK   40  A    between atoms: _93  and  _94
REMARK   41  A    between atoms: _93  and  _96
REMARK   42  A    between atoms: _96  and  _97
REMARK   43  A    between atoms: _100  and  _102
REMARK   44  A    between atoms: _102  and  _103
REMARK   45  A    between atoms: _105  and  _107
REMARK   46  A    between atoms: _107  and  _108
REMARK   47  A    between atoms: _107  and  _110
REMARK   48  A    between atoms: _110  and  _111
REMARK   49  A    between atoms: _111  and  _112
REMARK   50  A    between atoms: _112  and  _113
REMARK   51  A    between atoms: _113  and  _114
REMARK   52  A    between atoms: _118  and  _120
REMARK   53  A    between atoms: _120  and  _121
REMARK   54  A    between atoms: _120  and  _123
REMARK   55  A    between atoms: _123  and  _124
REMARK   56  A    between atoms: _127  and  _129
REMARK   57  A    between atoms: _129  and  _130
REMARK   58  A    between atoms: _129  and  _132
REMARK   59  A    between atoms: _135  and  _137
REMARK   60  A    between atoms: _137  and  _138
REMARK   61  A    between atoms: _137  and  _140
REMARK   62  A    between atoms: _140  and  _141
REMARK   63  A    between atoms: _146  and  _148
REMARK   64  A    between atoms: _148  and  _149
REMARK   65  A    between atoms: _148  and  _151
REMARK   66  A    between atoms: _151  and  _152
REMARK   67  A    between atoms: _155  and  _157
REMARK   68  A    between atoms: _157  and  _158
REMARK   69  A    between atoms: _157  and  _160
REMARK   70  A    between atoms: _160  and  _161
REMARK   71  A    between atoms: _164  and  _166
REMARK   72  A    between atoms: _166  and  _167
REMARK   73  A    between atoms: _166  and  _169
REMARK   74  A    between atoms: _169  and  _170
REMARK   75  A    between atoms: _170  and  _171
REMARK   76  A    between atoms: _174  and  _176
REMARK   77  A    between atoms: _176  and  _177
REMARK   78  A    between atoms: _176  and  _179
REMARK   79  A    between atoms: _179  and  _180
REMARK   80  A    between atoms: _180  and  _181
REMARK   81  A    between atoms: _183  and  _185
REMARK   82  A    between atoms: _185  and  _186
REMARK   83  A    between atoms: _185  and  _188
REMARK   84  A    between atoms: _188  and  _189
REMARK   85  A    between atoms: _191  and  _193
REMARK   86  A    between atoms: _193  and  _194
REMARK   87  A    between atoms: _193  and  _196
REMARK   88  A    between atoms: _196  and  _197
REMARK   89  A    between atoms: _202  and  _204
REMARK   90  A    between atoms: _204  and  _205
REMARK   91  A    between atoms: _208  and  _210
REMARK   92  A    between atoms: _210  and  _211
REMARK   93  A    between atoms: _210  and  _213
REMARK   94  A    between atoms: _213  and  _214
REMARK   95  A    between atoms: _217  and  _219
REMARK   96  A    between atoms: _219  and  _220
REMARK   97  A    between atoms: _219  and  _222
REMARK   98  A    between atoms: _225  and  _227
REMARK   99  A    between atoms: _227  and  _228
REMARK  100  A    between atoms: _231  and  _232
REMARK  101  A    between atoms: _237  and  _239
REMARK  102  A    between atoms: _239  and  _240
REMARK  103  A    between atoms: _239  and  _242
REMARK  104  A    between atoms: _242  and  _243
REMARK  105  A    between atoms: _245  and  _247
REMARK  106  A    between atoms: _247  and  _248
REMARK  107  A    between atoms: _247  and  _250
REMARK  108  A    between atoms: _250  and  _251
REMARK  109  A    between atoms: _254  and  _256
REMARK  110  A    between atoms: _256  and  _257
REMARK  111  A    between atoms: _256  and  _259
REMARK  112  A    between atoms: _259  and  _260
REMARK  113  A    between atoms: _260  and  _261
REMARK  114  A    between atoms: _261  and  _262
REMARK  115  A    between atoms: _271  and  _273
REMARK  116  A    between atoms: _273  and  _274
REMARK  117  A    between atoms: _273  and  _276
REMARK  118  A    between atoms: _276  and  _277
REMARK  119  A    between atoms: _280  and  _281
REMARK  120  A    between atoms: _286  and  _288
REMARK  121  A    between atoms: _288  and  _289
REMARK  122  A    between atoms: _291  and  _293
REMARK  123  A    between atoms: _293  and  _294
REMARK  124  A    between atoms: _293  and  _296
REMARK  125  A    between atoms: _299  and  _301
REMARK  126  A    between atoms: _301  and  _302
REMARK  127  A    between atoms: _304  and  _306
REMARK  128  A    between atoms: _306  and  _307
REMARK  129  A    between atoms: _310  and  _312
REMARK  130  A    between atoms: _312  and  _313
REMARK  131  A    between atoms: _312  and  _315
REMARK  132  A    between atoms: _315  and  _316
REMARK  133  A    between atoms: _316  and  _317
REMARK  134  A    between atoms: _322  and  _324
REMARK  135  A    between atoms: _324  and  _325
REMARK  136  A    between atoms: _327  and  _329
REMARK  137  A    between atoms: _329  and  _330
REMARK  138  A    between atoms: _332  and  _334
REMARK  139  A    between atoms: _334  and  _335
REMARK  140  A    between atoms: _334  and  _337
REMARK  141  A    between atoms: _337  and  _338
REMARK  142  A    between atoms: _341  and  _343
REMARK  143  A    between atoms: _343  and  _344
REMARK  144  A    between atoms: _343  and  _346
REMARK  145  A    between atoms: _349  and  _351
REMARK  146  A    between atoms: _351  and  _352
REMARK  147  A    between atoms: _354  and  _356
REMARK  148  A    between atoms: _356  and  _357
REMARK  149  A    between atoms: _356  and  _359
REMARK  150  A    between atoms: _359  and  _360
REMARK  151  A    between atoms: _360  and  _361
REMARK  152  A    between atoms: _361  and  _362
REMARK  153  A    between atoms: _371  and  _373
REMARK  154  A    between atoms: _373  and  _374
REMARK  155  A    between atoms: _373  and  _376
REMARK  156  A    between atoms: _376  and  _377
REMARK  157  A    between atoms: _379  and  _381
REMARK  158  A    between atoms: _381  and  _382
REMARK  159  A    between atoms: _381  and  _384
REMARK  160  A    between atoms: _384  and  _385
REMARK  161  A    between atoms: _388  and  _390
REMARK  162  A    between atoms: _390  and  _391
REMARK  163  A    between atoms: _390  and  _393
REMARK  164  A    between atoms: _393  and  _394
REMARK  165  A    between atoms: _399  and  _400
REMARK  166  A    between atoms: _402  and  _404
REMARK  167  A    between atoms: _404  and  _405
REMARK  168  A    between atoms: _404  and  _407
REMARK  169  A    between atoms: _407  and  _408
REMARK  170  A    between atoms: _411  and  _413
REMARK  171  A    between atoms: _413  and  _414
REMARK  172  A    between atoms: _417  and  _419
REMARK  173  A    between atoms: _419  and  _420
REMARK  174  A    between atoms: _419  and  _422
REMARK  175  A    between atoms: _422  and  _423
REMARK  176  A    between atoms: _426  and  _428
REMARK  177  A    between atoms: _428  and  _429
REMARK  178  A    between atoms: _428  and  _431
REMARK  179  A    between atoms: _431  and  _432
REMARK  180  A    between atoms: _436  and  _437
REMARK  181  A    between atoms: _442  and  _444
REMARK  182  A    between atoms: _444  and  _445
REMARK  183  A    between atoms: _444  and  _447
REMARK  184  A    between atoms: _447  and  _448
REMARK  185  A    between atoms: _448  and  _449
REMARK  186  A    between atoms: _452  and  _454
REMARK  187  A    between atoms: _454  and  _455
REMARK  188  A    between atoms: _454  and  _457
REMARK  189  A    between atoms: _457  and  _458
REMARK  190  A    between atoms: _461  and  _463
REMARK  191  A    between atoms: _463  and  _464
REMARK  192  A    between atoms: _463  and  _466
REMARK  193  A    between atoms: _466  and  _467
REMARK  194  A    between atoms: _472  and  _474
REMARK  195  A    between atoms: _474  and  _475
REMARK  196  A    between atoms: _474  and  _477
REMARK  197  A    between atoms: _477  and  _478
REMARK  198  A    between atoms: _478  and  _479
REMARK  199  A    between atoms: _479  and  _480
REMARK  200  A    between atoms: _480  and  _481
REMARK  201  A    between atoms: _485  and  _487
REMARK  202  A    between atoms: _487  and  _488
REMARK  203  A    between atoms: _487  and  _490
REMARK  204  A    between atoms: _490  and  _491
REMARK                            x       y       z     vdW  Elec       q    Type
REMARK                         _______ _______ _______ _____ _____    ______ ____
ROOT
ATOM      1  O   HOH     1       0.857  -8.058   6.326  0.00  0.00    +0.000 OA
ENDROOT
TORSDOF 0
REMARK  Name = ../refined-set-2016/3g1v/3g1v_pocket.pdb
REMARK  204 active torsions:
REMARK  status: ('A' for Active; 'I' for Inactive)
REMARK    1  A    between atoms: _1  and  _3
REMARK    2  A    between atoms: _3  and  _4
REMARK    3  A    between atoms: _3  and  _6
REMARK    4  A    between atoms: _6  and  _7
REMARK    5  A    between atoms: _10  and  _12
REMARK    6  A    between atoms: _12  and  _13
REMARK    7  A    between atoms: _12  and  _15
REMARK    8  A    between atoms: _15  and  _16
REMARK    9  A    between atoms: _19  and  _21
REMARK   10  A    between atoms: _21  and  _22
REMARK   11  A    between atoms: _25  and  _27
REMARK   12  A    between atoms: _27  and  _28
REMARK   13  A    between atoms: _27  and  _30
REMARK   14  A    between atoms: _30  and  _31
REMARK   15  A    between atoms: _31  and  _32
REMARK   16  A    between atoms: _34  and  _36
REMARK   17  A    between atoms: _36  and  _37
REMARK   18  A    between atoms: _36  and  _39
REMARK   19  A    between atoms: _39  and  _40
REMARK   20  A    between atoms: _43  and  _45
REMARK   21  A    between atoms: _45  and  _46
REMARK   22  A    between atoms: _45  and  _48
REMARK   23  A    between atoms: _48  and  _49
REMARK   24  A    between atoms: _49  and  _50
REMARK   25  A    between atoms: _50  and  _51
REMARK   26  A    between atoms: _51  and  _52
REMARK   27  A    between atoms: _56  and  _58
REMARK   28  A    between atoms: _58  and  _59
REMARK   29  A    between atoms: _58  and  _61
REMARK   30  A    between atoms: _61  and  _62
REMARK   31  A    between atoms: _65  and  _67
REMARK   32  A    between atoms: _67  and  _68
REMARK   33  A    between atoms: _70  and  _72
REMARK   34  A    between atoms: _72  and  _73
REMARK   35  A    between atoms: _72  and  _75
REMARK   36  A    between atoms: _75  and  _76
REMARK   37  A    between atoms: _81  and  _82
REMARK   38  A    between atoms: _85  and  _86
REMARK   39  A    between atoms: _91  and  _93
REMARK   40  A    between atoms: _93  and  _94
REMARK   41  A    between atoms: _93  and  _96
REMARK   42  A    between atoms: _96  and  _97
REMARK   43  A    between atoms: _100  and  _102
REMARK   44  A    between atoms: _102  and  _103
REMARK   45  A    between atoms: _105  and  _107
REMARK   46  A    between atoms: _107  and  _108
REMARK   47  A    between atoms: _107  and  _110
REMARK   48  A    between atoms: _110  and  _111
REMARK   49  A    between atoms: _111  and  _112
REMARK   50  A    between atoms: _112  and  _113
REMARK   51  A    between atoms: _113  and  _114
REMARK   52  A    between atoms: _118  and  _120
REMARK   53  A    between atoms: _120  and  _121
REMARK   54  A    between atoms: _120  and  _123
REMARK   55  A    between atoms: _123  and  _124
REMARK   56  A    between atoms: _127  and  _129
REMARK   57  A    between atoms: _129  and  _130
REMARK   58  A    between atoms: _129  and  _132
REMARK   59  A    between atoms: _135  and  _137
REMARK   60  A    between atoms: _137  and  _138
REMARK   61  A    between atoms: _137  and  _140
REMARK   62  A    between atoms: _140  and  _141
REMARK   63  A    between atoms: _146  and  _148
REMARK   64  A    between atoms: _148  and  _149
REMARK   65  A    between atoms: _148  and  _151
REMARK   66  A    between atoms: _151  and  _152
REMARK   67  A    between atoms: _155  and  _157
REMARK   68  A    between atoms: _157  and  _158
REMARK   69  A    between atoms: _157  and  _160
REMARK   70  A    between atoms: _160  and  _161
REMARK   71  A    between atoms: _164  and  _166
REMARK   72  A    between atoms: _166  and  _167
REMARK   73  A    between atoms: _166  and  _169
REMARK   74  A    between atoms: _169  and  _170
REMARK   75  A    between atoms: _170  and  _171
REMARK   76  A    between atoms: _174  and  _176
REMARK   77  A    between atoms: _176  and  _177
REMARK   78  A    between atoms: _176  and  _179
REMARK   79  A    between atoms: _179  and  _180
REMARK   80  A    between atoms: _180  and  _181
REMARK   81  A    between atoms: _183  and  _185
REMARK   82  A    between atoms: _185  and  _186
REMARK   83  A    between atoms: _185  and  _188
REMARK   84  A    between atoms: _188  and  _189
REMARK   85  A    between atoms: _191  and  _193
REMARK   86  A    between atoms: _193  and  _194
REMARK   87  A    between atoms: _193  and  _196
REMARK   88  A    between atoms: _196  and  _197
REMARK   89  A    between atoms: _202  and  _204
REMARK   90  A    between atoms: _204  and  _205
REMARK   91  A    between atoms: _208  and  _210
REMARK   92  A    between atoms: _210  and  _211
REMARK   93  A    between atoms: _210  and  _213
REMARK   94  A    between atoms: _213  and  _214
REMARK   95  A    between atoms: _217  and  _219
REMARK   96  A    between atoms: _219  and  _220
REMARK   97  A    between atoms: _219  and  _222
REMARK   98  A    between atoms: _225  and  _227
REMARK   99  A    between atoms: _227  and  _228
REMARK  100  A    between atoms: _231  and  _232
REMARK  101  A    between atoms: _237  and  _239
REMARK  102  A    between atoms: _239  and  _240
REMARK  103  A    between atoms: _239  and  _242
REMARK  104  A    between atoms: _242  and  _243
REMARK  105  A    between atoms: _245  and  _247
REMARK  106  A    between atoms: _247  and  _248
REMARK  107  A    between atoms: _247  and  _250
REMARK  108  A    between atoms: _250  and  _251
REMARK  109  A    between atoms: _254  and  _256
REMARK  110  A    between atoms: _256  and  _257
REMARK  111  A    between atoms: _256  and  _259
REMARK  112  A    between atoms: _259  and  _260
REMARK  113  A    between atoms: _260  and  _261
REMARK  114  A    between atoms: _261  and  _262
REMARK  115  A    between atoms: _271  and  _273
REMARK  116  A    between atoms: _273  and  _274
REMARK  117  A    between atoms: _273  and  _276
REMARK  118  A    between atoms: _276  and  _277
REMARK  119  A    between atoms: _280  and  _281
REMARK  120  A    between atoms: _286  and  _288
REMARK  121  A    between atoms: _288  and  _289
REMARK  122  A    between atoms: _291  and  _293
REMARK  123  A    between atoms: _293  and  _294
REMARK  124  A    between atoms: _293  and  _296
REMARK  125  A    between atoms: _299  and  _301
REMARK  126  A    between atoms: _301  and  _302
REMARK  127  A    between atoms: _304  and  _306
REMARK  128  A    between atoms: _306  and  _307
REMARK  129  A    between atoms: _310  and  _312
REMARK  130  A    between atoms: _312  and  _313
REMARK  131  A    between atoms: _312  and  _315
REMARK  132  A    between atoms: _315  and  _316
REMARK  133  A    between atoms: _316  and  _317
REMARK  134  A    between atoms: _322  and  _324
REMARK  135  A    between atoms: _324  and  _325
REMARK  136  A    between atoms: _327  and  _329
REMARK  137  A    between atoms: _329  and  _330
REMARK  138  A    between atoms: _332  and  _334
REMARK  139  A    between atoms: _334  and  _335
REMARK  140  A    between atoms: _334  and  _337
REMARK  141  A    between atoms: _337  and  _338
REMARK  142  A    between atoms: _341  and  _343
REMARK  143  A    between atoms: _343  and  _344
REMARK  144  A    between atoms: _343  and  _346
REMARK  145  A    between atoms: _349  and  _351
REMARK  146  A    between atoms: _351  and  _352
REMARK  147  A    between atoms: _354  and  _356
REMARK  148  A    between atoms: _356  and  _357
REMARK  149  A    between atoms: _356  and  _359
REMARK  150  A    between atoms: _359  and  _360
REMARK  151  A    between atoms: _360  and  _361
REMARK  152  A    between atoms: _361  and  _362
REMARK  153  A    between atoms: _371  and  _373
REMARK  154  A    between atoms: _373  and  _374
REMARK  155  A    between atoms: _373  and  _376
REMARK  156  A    between atoms: _376  and  _377
REMARK  157  A    between atoms: _379  and  _381
REMARK  158  A    between atoms: _381  and  _382
REMARK  159  A    between atoms: _381  and  _384
REMARK  160  A    between atoms: _384  and  _385
REMARK  161  A    between atoms: _388  and  _390
REMARK  162  A    between atoms: _390  and  _391
REMARK  163  A    between atoms: _390  and  _393
REMARK  164  A    between atoms: _393  and  _394
REMARK  165  A    between atoms: _399  and  _400
REMARK  166  A    between atoms: _402  and  _404
REMARK  167  A    between atoms: _404  and  _405
REMARK  168  A    between atoms: _404  and  _407
REMARK  169  A    between atoms: _407  and  _408
REMARK  170  A    between atoms: _411  and  _413
REMARK  171  A    between atoms: _413  and  _414
REMARK  172  A    between atoms: _417  and  _419
REMARK  173  A    between atoms: _419  and  _420
REMARK  174  A    between atoms: _419  and  _422
REMARK  175  A    between atoms: _422  and  _423
REMARK  176  A    between atoms: _426  and  _428
REMARK  177  A    between atoms: _428  and  _429
REMARK  178  A    between atoms: _428  and  _431
REMARK  179  A    between atoms: _431  and  _432
REMARK  180  A    between atoms: _436  and  _437
REMARK  181  A    between atoms: _442  and  _444
REMARK  182  A    between atoms: _444  and  _445
REMARK  183  A    between atoms: _444  and  _447
REMARK  184  A    between atoms: _447  and  _448
REMARK  185  A    between atoms: _448  and  _449
REMARK  186  A    between atoms: _452  and  _454
REMARK  187  A    between atoms: _454  and  _455
REMARK  188  A    between atoms: _454  and  _457
REMARK  189  A    between atoms: _457  and  _458
REMARK  190  A    between atoms: _461  and  _463
REMARK  191  A    between atoms: _463  and  _464
REMARK  192  A    between atoms: _463  and  _466
REMARK  193  A    between atoms: _466  and  _467
REMARK  194  A    between atoms: _472  and  _474
REMARK  195  A    between atoms: _474  and  _475
REMARK  196  A    between atoms: _474  and  _477
REMARK  197  A    between atoms: _477  and  _478
REMARK  198  A    between atoms: _478  and  _479
REMARK  199  A    between atoms: _479  and  _480
REMARK  200  A    between atoms: _480  and  _481
REMARK  201  A    between atoms: _485  and  _487
REMARK  202  A    between atoms: _487  and  _488
REMARK  203  A    between atoms: _487  and  _490
REMARK  204  A    between atoms: _490  and  _491
REMARK                            x       y       z     vdW  Elec       q    Type
REMARK                         _______ _______ _______ _____ _____    ______ ____
ROOT
ATOM      1  O   HOH     1       4.978  -6.637  11.436  0.00  0.00    +0.000 OA
ENDROOT
TORSDOF 0
REMARK  Name = ../refined-set-2016/3g1v/3g1v_pocket.pdb
REMARK  204 active torsions:
REMARK  status: ('A' for Active; 'I' for Inactive)
REMARK    1  A    between atoms: _1  and  _3
REMARK    2  A    between atoms: _3  and  _4
REMARK    3  A    between atoms: _3  and  _6
REMARK    4  A    between atoms: _6  and  _7
REMARK    5  A    between atoms: _10  and  _12
REMARK    6  A    between atoms: _12  and  _13
REMARK    7  A    between atoms: _12  and  _15
REMARK    8  A    between atoms: _15  and  _16
REMARK    9  A    between atoms: _19  and  _21
REMARK   10  A    between atoms: _21  and  _22
REMARK   11  A    between atoms: _25  and  _27
REMARK   12  A    between atoms: _27  and  _28
REMARK   13  A    between atoms: _27  and  _30
REMARK   14  A    between atoms: _30  and  _31
REMARK   15  A    between atoms: _31  and  _32
REMARK   16  A    between atoms: _34  and  _36
REMARK   17  A    between atoms: _36  and  _37
REMARK   18  A    between atoms: _36  and  _39
REMARK   19  A    between atoms: _39  and  _40
REMARK   20  A    between atoms: _43  and  _45
REMARK   21  A    between atoms: _45  and  _46
REMARK   22  A    between atoms: _45  and  _48
REMARK   23  A    between atoms: _48  and  _49
REMARK   24  A    between atoms: _49  and  _50
REMARK   25  A    between atoms: _50  and  _51
REMARK   26  A    between atoms: _51  and  _52
REMARK   27  A    between atoms: _56  and  _58
REMARK   28  A    between atoms: _58  and  _59
REMARK   29  A    between atoms: _58  and  _61
REMARK   30  A    between atoms: _61  and  _62
REMARK   31  A    between atoms: _65  and  _67
REMARK   32  A    between atoms: _67  and  _68
REMARK   33  A    between atoms: _70  and  _72
REMARK   34  A    between atoms: _72  and  _73
REMARK   35  A    between atoms: _72  and  _75
REMARK   36  A    between atoms: _75  and  _76
REMARK   37  A    between atoms: _81  and  _82
REMARK   38  A    between atoms: _85  and  _86
REMARK   39  A    between atoms: _91  and  _93
REMARK   40  A    between atoms: _93  and  _94
REMARK   41  A    between atoms: _93  and  _96
REMARK   42  A    between atoms: _96  and  _97
REMARK   43  A    between atoms: _100  and  _102
REMARK   44  A    between atoms: _102  and  _103
REMARK   45  A    between atoms: _105  and  _107
REMARK   46  A    between atoms: _107  and  _108
REMARK   47  A    between atoms: _107  and  _110
REMARK   48  A    between atoms: _110  and  _111
REMARK   49  A    between atoms: _111  and  _112
REMARK   50  A    between atoms: _112  and  _113
REMARK   51  A    between atoms: _113  and  _114
REMARK   52  A    between atoms: _118  and  _120
REMARK   53  A    between atoms: _120  and  _121
REMARK   54  A    between atoms: _120  and  _123
REMARK   55  A    between atoms: _123  and  _124
REMARK   56  A    between atoms: _127  and  _129
REMARK   57  A    between atoms: _129  and  _130
REMARK   58  A    between atoms: _129  and  _132
REMARK   59  A    between atoms: _135  and  _137
REMARK   60  A    between atoms: _137  and  _138
REMARK   61  A    between atoms: _137  and  _140
REMARK   62  A    between atoms: _140  and  _141
REMARK   63  A    between atoms: _146  and  _148
REMARK   64  A    between atoms: _148  and  _149
REMARK   65  A    between atoms: _148  and  _151
REMARK   66  A    between atoms: _151  and  _152
REMARK   67  A    between atoms: _155  and  _157
REMARK   68  A    between atoms: _157  and  _158
REMARK   69  A    between atoms: _157  and  _160
REMARK   70  A    between atoms: _160  and  _161
REMARK   71  A    between atoms: _164  and  _166
REMARK   72  A    between atoms: _166  and  _167
REMARK   73  A    between atoms: _166  and  _169
REMARK   74  A    between atoms: _169  and  _170
REMARK   75  A    between atoms: _170  and  _171
REMARK   76  A    between atoms: _174  and  _176
REMARK   77  A    between atoms: _176  and  _177
REMARK   78  A    between atoms: _176  and  _179
REMARK   79  A    between atoms: _179  and  _180
REMARK   80  A    between atoms: _180  and  _181
REMARK   81  A    between atoms: _183  and  _185
REMARK   82  A    between atoms: _185  and  _186
REMARK   83  A    between atoms: _185  and  _188
REMARK   84  A    between atoms: _188  and  _189
REMARK   85  A    between atoms: _191  and  _193
REMARK   86  A    between atoms: _193  and  _194
REMARK   87  A    between atoms: _193  and  _196
REMARK   88  A    between atoms: _196  and  _197
REMARK   89  A    between atoms: _202  and  _204
REMARK   90  A    between atoms: _204  and  _205
REMARK   91  A    between atoms: _208  and  _210
REMARK   92  A    between atoms: _210  and  _211
REMARK   93  A    between atoms: _210  and  _213
REMARK   94  A    between atoms: _213  and  _214
REMARK   95  A    between atoms: _217  and  _219
REMARK   96  A    between atoms: _219  and  _220
REMARK   97  A    between atoms: _219  and  _222
REMARK   98  A    between atoms: _225  and  _227
REMARK   99  A    between atoms: _227  and  _228
REMARK  100  A    between atoms: _231  and  _232
REMARK  101  A    between atoms: _237  and  _239
REMARK  102  A    between atoms: _239  and  _240
REMARK  103  A    between atoms: _239  and  _242
REMARK  104  A    between atoms: _242  and  _243
REMARK  105  A    between atoms: _245  and  _247
REMARK  106  A    between atoms: _247  and  _248
REMARK  107  A    between atoms: _247  and  _250
REMARK  108  A    between atoms: _250  and  _251
REMARK  109  A    between atoms: _254  and  _256
REMARK  110  A    between atoms: _256  and  _257
REMARK  111  A    between atoms: _256  and  _259
REMARK  112  A    between atoms: _259  and  _260
REMARK  113  A    between atoms: _260  and  _261
REMARK  114  A    between atoms: _261  and  _262
REMARK  115  A    between atoms: _271  and  _273
REMARK  116  A    between atoms: _273  and  _274
REMARK  117  A    between atoms: _273  and  _276
REMARK  118  A    between atoms: _276  and  _277
REMARK  119  A    between atoms: _280  and  _281
REMARK  120  A    between atoms: _286  and  _288
REMARK  121  A    between atoms: _288  and  _289
REMARK  122  A    between atoms: _291  and  _293
REMARK  123  A    between atoms: _293  and  _294
REMARK  124  A    between atoms: _293  and  _296
REMARK  125  A    between atoms: _299  and  _301
REMARK  126  A    between atoms: _301  and  _302
REMARK  127  A    between atoms: _304  and  _306
REMARK  128  A    between atoms: _306  and  _307
REMARK  129  A    between atoms: _310  and  _312
REMARK  130  A    between atoms: _312  and  _313
REMARK  131  A    between atoms: _312  and  _315
REMARK  132  A    between atoms: _315  and  _316
REMARK  133  A    between atoms: _316  and  _317
REMARK  134  A    between atoms: _322  and  _324
REMARK  135  A    between atoms: _324  and  _325
REMARK  136  A    between atoms: _327  and  _329
REMARK  137  A    between atoms: _329  and  _330
REMARK  138  A    between atoms: _332  and  _334
REMARK  139  A    between atoms: _334  and  _335
REMARK  140  A    between atoms: _334  and  _337
REMARK  141  A    between atoms: _337  and  _338
REMARK  142  A    between atoms: _341  and  _343
REMARK  143  A    between atoms: _343  and  _344
REMARK  144  A    between atoms: _343  and  _346
REMARK  145  A    between atoms: _349  and  _351
REMARK  146  A    between atoms: _351  and  _352
REMARK  147  A    between atoms: _354  and  _356
REMARK  148  A    between atoms: _356  and  _357
REMARK  149  A    between atoms: _356  and  _359
REMARK  150  A    between atoms: _359  and  _360
REMARK  151  A    between atoms: _360  and  _361
REMARK  152  A    between atoms: _361  and  _362
REMARK  153  A    between atoms: _371  and  _373
REMARK  154  A    between atoms: _373  and  _374
REMARK  155  A    between atoms: _373  and  _376
REMARK  156  A    between atoms: _376  and  _377
REMARK  157  A    between atoms: _379  and  _381
REMARK  158  A    between atoms: _381  and  _382
REMARK  159  A    between atoms: _381  and  _384
REMARK  160  A    between atoms: _384  and  _385
REMARK  161  A    between atoms: _388  and  _390
REMARK  162  A    between atoms: _390  and  _391
REMARK  163  A    between atoms: _390  and  _393
REMARK  164  A    between atoms: _393  and  _394
REMARK  165  A    between atoms: _399  and  _400
REMARK  166  A    between atoms: _402  and  _404
REMARK  167  A    between atoms: _404  and  _405
REMARK  168  A    between atoms: _404  and  _407
REMARK  169  A    between atoms: _407  and  _408
REMARK  170  A    between atoms: _411  and  _413
REMARK  171  A    between atoms: _413  and  _414
REMARK  172  A    between atoms: _417  and  _419
REMARK  173  A    between atoms: _419  and  _420
REMARK  174  A    between atoms: _419  and  _422
REMARK  175  A    between atoms: _422  and  _423
REMARK  176  A    between atoms: _426  and  _428
REMARK  177  A    between atoms: _428  and  _429
REMARK  178  A    between atoms: _428  and  _431
REMARK  179  A    between atoms: _431  and  _432
REMARK  180  A    between atoms: _436  and  _437
REMARK  181  A    between atoms: _442  and  _444
REMARK  182  A    between atoms: _444  and  _445
REMARK  183  A    between atoms: _444  and  _447
REMARK  184  A    between atoms: _447  and  _448
REMARK  185  A    between atoms: _448  and  _449
REMARK  186  A    between atoms: _452  and  _454
REMARK  187  A    between atoms: _454  and  _455
REMARK  188  A    between atoms: _454  and  _457
REMARK  189  A    between atoms: _457  and  _458
REMARK  190  A    between atoms: _461  and  _463
REMARK  191  A    between atoms: _463  and  _464
REMARK  192  A    between atoms: _463  and  _466
REMARK  193  A    between atoms: _466  and  _467
REMARK  194  A    between atoms: _472  and  _474
REMARK  195  A    between atoms: _474  and  _475
REMARK  196  A    between atoms: _474  and  _477
REMARK  197  A    between atoms: _477  and  _478
REMARK  198  A    between atoms: _478  and  _479
REMARK  199  A    between atoms: _479  and  _480
REMARK  200  A    between atoms: _480  and  _481
REMARK  201  A    between atoms: _485  and  _487
REMARK  202  A    between atoms: _487  and  _488
REMARK  203  A    between atoms: _487  and  _490
REMARK  204  A    between atoms: _490  and  _491
REMARK                            x       y       z     vdW  Elec       q    Type
REMARK                         _______ _______ _______ _____ _____    ______ ____
ROOT
ATOM      1  O   HOH     1       2.254  -6.065  10.775  0.00  0.00    +0.000 OA
ENDROOT
TORSDOF 0
REMARK  Name = ../refined-set-2016/3g1v/3g1v_pocket.pdb
REMARK  204 active torsions:
REMARK  status: ('A' for Active; 'I' for Inactive)
REMARK    1  A    between atoms: _1  and  _3
REMARK    2  A    between atoms: _3  and  _4
REMARK    3  A    between atoms: _3  and  _6
REMARK    4  A    between atoms: _6  and  _7
REMARK    5  A    between atoms: _10  and  _12
REMARK    6  A    between atoms: _12  and  _13
REMARK    7  A    between atoms: _12  and  _15
REMARK    8  A    between atoms: _15  and  _16
REMARK    9  A    between atoms: _19  and  _21
REMARK   10  A    between atoms: _21  and  _22
REMARK   11  A    between atoms: _25  and  _27
REMARK   12  A    between atoms: _27  and  _28
REMARK   13  A    between atoms: _27  and  _30
REMARK   14  A    between atoms: _30  and  _31
REMARK   15  A    between atoms: _31  and  _32
REMARK   16  A    between atoms: _34  and  _36
REMARK   17  A    between atoms: _36  and  _37
REMARK   18  A    between atoms: _36  and  _39
REMARK   19  A    between atoms: _39  and  _40
REMARK   20  A    between atoms: _43  and  _45
REMARK   21  A    between atoms: _45  and  _46
REMARK   22  A    between atoms: _45  and  _48
REMARK   23  A    between atoms: _48  and  _49
REMARK   24  A    between atoms: _49  and  _50
REMARK   25  A    between atoms: _50  and  _51
REMARK   26  A    between atoms: _51  and  _52
REMARK   27  A    between atoms: _56  and  _58
REMARK   28  A    between atoms: _58  and  _59
REMARK   29  A    between atoms: _58  and  _61
REMARK   30  A    between atoms: _61  and  _62
REMARK   31  A    between atoms: _65  and  _67
REMARK   32  A    between atoms: _67  and  _68
REMARK   33  A    between atoms: _70  and  _72
REMARK   34  A    between atoms: _72  and  _73
REMARK   35  A    between atoms: _72  and  _75
REMARK   36  A    between atoms: _75  and  _76
REMARK   37  A    between atoms: _81  and  _82
REMARK   38  A    between atoms: _85  and  _86
REMARK   39  A    between atoms: _91  and  _93
REMARK   40  A    between atoms: _93  and  _94
REMARK   41  A    between atoms: _93  and  _96
REMARK   42  A    between atoms: _96  and  _97
REMARK   43  A    between atoms: _100  and  _102
REMARK   44  A    between atoms: _102  and  _103
REMARK   45  A    between atoms: _105  and  _107
REMARK   46  A    between atoms: _107  and  _108
REMARK   47  A    between atoms: _107  and  _110
REMARK   48  A    between atoms: _110  and  _111
REMARK   49  A    between atoms: _111  and  _112
REMARK   50  A    between atoms: _112  and  _113
REMARK   51  A    between atoms: _113  and  _114
REMARK   52  A    between atoms: _118  and  _120
REMARK   53  A    between atoms: _120  and  _121
REMARK   54  A    between atoms: _120  and  _123
REMARK   55  A    between atoms: _123  and  _124
REMARK   56  A    between atoms: _127  and  _129
REMARK   57  A    between atoms: _129  and  _130
REMARK   58  A    between atoms: _129  and  _132
REMARK   59  A    between atoms: _135  and  _137
REMARK   60  A    between atoms: _137  and  _138
REMARK   61  A    between atoms: _137  and  _140
REMARK   62  A    between atoms: _140  and  _141
REMARK   63  A    between atoms: _146  and  _148
REMARK   64  A    between atoms: _148  and  _149
REMARK   65  A    between atoms: _148  and  _151
REMARK   66  A    between atoms: _151  and  _152
REMARK   67  A    between atoms: _155  and  _157
REMARK   68  A    between atoms: _157  and  _158
REMARK   69  A    between atoms: _157  and  _160
REMARK   70  A    between atoms: _160  and  _161
REMARK   71  A    between atoms: _164  and  _166
REMARK   72  A    between atoms: _166  and  _167
REMARK   73  A    between atoms: _166  and  _169
REMARK   74  A    between atoms: _169  and  _170
REMARK   75  A    between atoms: _170  and  _171
REMARK   76  A    between atoms: _174  and  _176
REMARK   77  A    between atoms: _176  and  _177
REMARK   78  A    between atoms: _176  and  _179
REMARK   79  A    between atoms: _179  and  _180
REMARK   80  A    between atoms: _180  and  _181
REMARK   81  A    between atoms: _183  and  _185
REMARK   82  A    between atoms: _185  and  _186
REMARK   83  A    between atoms: _185  and  _188
REMARK   84  A    between atoms: _188  and  _189
REMARK   85  A    between atoms: _191  and  _193
REMARK   86  A    between atoms: _193  and  _194
REMARK   87  A    between atoms: _193  and  _196
REMARK   88  A    between atoms: _196  and  _197
REMARK   89  A    between atoms: _202  and  _204
REMARK   90  A    between atoms: _204  and  _205
REMARK   91  A    between atoms: _208  and  _210
REMARK   92  A    between atoms: _210  and  _211
REMARK   93  A    between atoms: _210  and  _213
REMARK   94  A    between atoms: _213  and  _214
REMARK   95  A    between atoms: _217  and  _219
REMARK   96  A    between atoms: _219  and  _220
REMARK   97  A    between atoms: _219  and  _222
REMARK   98  A    between atoms: _225  and  _227
REMARK   99  A    between atoms: _227  and  _228
REMARK  100  A    between atoms: _231  and  _232
REMARK  101  A    between atoms: _237  and  _239
REMARK  102  A    between atoms: _239  and  _240
REMARK  103  A    between atoms: _239  and  _242
REMARK  104  A    between atoms: _242  and  _243
REMARK  105  A    between atoms: _245  and  _247
REMARK  106  A    between atoms: _247  and  _248
REMARK  107  A    between atoms: _247  and  _250
REMARK  108  A    between atoms: _250  and  _251
REMARK  109  A    between atoms: _254  and  _256
REMARK  110  A    between atoms: _256  and  _257
REMARK  111  A    between atoms: _256  and  _259
REMARK  112  A    between atoms: _259  and  _260
REMARK  113  A    between atoms: _260  and  _261
REMARK  114  A    between atoms: _261  and  _262
REMARK  115  A    between atoms: _271  and  _273
REMARK  116  A    between atoms: _273  and  _274
REMARK  117  A    between atoms: _273  and  _276
REMARK  118  A    between atoms: _276  and  _277
REMARK  119  A    between atoms: _280  and  _281
REMARK  120  A    between atoms: _286  and  _288
REMARK  121  A    between atoms: _288  and  _289
REMARK  122  A    between atoms: _291  and  _293
REMARK  123  A    between atoms: _293  and  _294
REMARK  124  A    between atoms: _293  and  _296
REMARK  125  A    between atoms: _299  and  _301
REMARK  126  A    between atoms: _301  and  _302
REMARK  127  A    between atoms: _304  and  _306
REMARK  128  A    between atoms: _306  and  _307
REMARK  129  A    between atoms: _310  and  _312
REMARK  130  A    between atoms: _312  and  _313
REMARK  131  A    between atoms: _312  and  _315
REMARK  132  A    between atoms: _315  and  _316
REMARK  133  A    between atoms: _316  and  _317
REMARK  134  A    between atoms: _322  and  _324
REMARK  135  A    between atoms: _324  and  _325
REMARK  136  A    between atoms: _327  and  _329
REMARK  137  A    between atoms: _329  and  _330
REMARK  138  A    between atoms: _332  and  _334
REMARK  139  A    between atoms: _334  and  _335
REMARK  140  A    between atoms: _334  and  _337
REMARK  141  A    between atoms: _337  and  _338
REMARK  142  A    between atoms: _341  and  _343
REMARK  143  A    between atoms: _343  and  _344
REMARK  144  A    between atoms: _343  and  _346
REMARK  145  A    between atoms: _349  and  _351
REMARK  146  A    between atoms: _351  and  _352
REMARK  147  A    between atoms: _354  and  _356
REMARK  148  A    between atoms: _356  and  _357
REMARK  149  A    between atoms: _356  and  _359
REMARK  150  A    between atoms: _359  and  _360
REMARK  151  A    between atoms: _360  and  _361
REMARK  152  A    between atoms: _361  and  _362
REMARK  153  A    between atoms: _371  and  _373
REMARK  154  A    between atoms: _373  and  _374
REMARK  155  A    between atoms: _373  and  _376
REMARK  156  A    between atoms: _376  and  _377
REMARK  157  A    between atoms: _379  and  _381
REMARK  158  A    between atoms: _381  and  _382
REMARK  159  A    between atoms: _381  and  _384
REMARK  160  A    between atoms: _384  and  _385
REMARK  161  A    between atoms: _388  and  _390
REMARK  162  A    between atoms: _390  and  _391
REMARK  163  A    between atoms: _390  and  _393
REMARK  164  A    between atoms: _393  and  _394
REMARK  165  A    between atoms: _399  and  _400
REMARK  166  A    between atoms: _402  and  _404
REMARK  167  A    between atoms: _404  and  _405
REMARK  168  A    between atoms: _404  and  _407
REMARK  169  A    between atoms: _407  and  _408
REMARK  170  A    between atoms: _411  and  _413
REMARK  171  A    between atoms: _413  and  _414
REMARK  172  A    between atoms: _417  and  _419
REMARK  173  A    between atoms: _419  and  _420
REMARK  174  A    between atoms: _419  and  _422
REMARK  175  A    between atoms: _422  and  _423
REMARK  176  A    between atoms: _426  and  _428
REMARK  177  A    between atoms: _428  and  _429
REMARK  178  A    between atoms: _428  and  _431
REMARK  179  A    between atoms: _431  and  _432
REMARK  180  A    between atoms: _436  and  _437
REMARK  181  A    between atoms: _442  and  _444
REMARK  182  A    between atoms: _444  and  _445
REMARK  183  A    between atoms: _444  and  _447
REMARK  184  A    between atoms: _447  and  _448
REMARK  185  A    between atoms: _448  and  _449
REMARK  186  A    between atoms: _452  and  _454
REMARK  187  A    between atoms: _454  and  _455
REMARK  188  A    between atoms: _454  and  _457
REMARK  189  A    between atoms: _457  and  _458
REMARK  190  A    between atoms: _461  and  _463
REMARK  191  A    between atoms: _463  and  _464
REMARK  192  A    between atoms: _463  and  _466
REMARK  193  A    between atoms: _466  and  _467
REMARK  194  A    between atoms: _472  and  _474
REMARK  195  A    between atoms: _474  and  _475
REMARK  196  A    between atoms: _474  and  _477
REMARK  197  A    between atoms: _477  and  _478
REMARK  198  A    between atoms: _478  and  _479
REMARK  199  A    between atoms: _479  and  _480
REMARK  200  A    between atoms: _480  and  _481
REMARK  201  A    between atoms: _485  and  _487
REMARK  202  A    between atoms: _487  and  _488
REMARK  203  A    between atoms: _487  and  _490
REMARK  204  A    between atoms: _490  and  _491
REMARK                            x       y       z     vdW  Elec       q    Type
REMARK                         _______ _______ _______ _____ _____    ______ ____
ROOT
ATOM      1  O   HOH     1      16.955   7.858   2.558  0.00  0.00    +0.000 OA
ENDROOT
TORSDOF 0
REMARK  Name = ../refined-set-2016/3g1v/3g1v_pocket.pdb
REMARK  204 active torsions:
REMARK  status: ('A' for Active; 'I' for Inactive)
REMARK    1  A    between atoms: _1  and  _3
REMARK    2  A    between atoms: _3  and  _4
REMARK    3  A    between atoms: _3  and  _6
REMARK    4  A    between atoms: _6  and  _7
REMARK    5  A    between atoms: _10  and  _12
REMARK    6  A    between atoms: _12  and  _13
REMARK    7  A    between atoms: _12  and  _15
REMARK    8  A    between atoms: _15  and  _16
REMARK    9  A    between atoms: _19  and  _21
REMARK   10  A    between atoms: _21  and  _22
REMARK   11  A    between atoms: _25  and  _27
REMARK   12  A    between atoms: _27  and  _28
REMARK   13  A    between atoms: _27  and  _30
REMARK   14  A    between atoms: _30  and  _31
REMARK   15  A    between atoms: _31  and  _32
REMARK   16  A    between atoms: _34  and  _36
REMARK   17  A    between atoms: _36  and  _37
REMARK   18  A    between atoms: _36  and  _39
REMARK   19  A    between atoms: _39  and  _40
REMARK   20  A    between atoms: _43  and  _45
REMARK   21  A    between atoms: _45  and  _46
REMARK   22  A    between atoms: _45  and  _48
REMARK   23  A    between atoms: _48  and  _49
REMARK   24  A    between atoms: _49  and  _50
REMARK   25  A    between atoms: _50  and  _51
REMARK   26  A    between atoms: _51  and  _52
REMARK   27  A    between atoms: _56  and  _58
REMARK   28  A    between atoms: _58  and  _59
REMARK   29  A    between atoms: _58  and  _61
REMARK   30  A    between atoms: _61  and  _62
REMARK   31  A    between atoms: _65  and  _67
REMARK   32  A    between atoms: _67  and  _68
REMARK   33  A    between atoms: _70  and  _72
REMARK   34  A    between atoms: _72  and  _73
REMARK   35  A    between atoms: _72  and  _75
REMARK   36  A    between atoms: _75  and  _76
REMARK   37  A    between atoms: _81  and  _82
REMARK   38  A    between atoms: _85  and  _86
REMARK   39  A    between atoms: _91  and  _93
REMARK   40  A    between atoms: _93  and  _94
REMARK   41  A    between atoms: _93  and  _96
REMARK   42  A    between atoms: _96  and  _97
REMARK   43  A    between atoms: _100  and  _102
REMARK   44  A    between atoms: _102  and  _103
REMARK   45  A    between atoms: _105  and  _107
REMARK   46  A    between atoms: _107  and  _108
REMARK   47  A    between atoms: _107  and  _110
REMARK   48  A    between atoms: _110  and  _111
REMARK   49  A    between atoms: _111  and  _112
REMARK   50  A    between atoms: _112  and  _113
REMARK   51  A    between atoms: _113  and  _114
REMARK   52  A    between atoms: _118  and  _120
REMARK   53  A    between atoms: _120  and  _121
REMARK   54  A    between atoms: _120  and  _123
REMARK   55  A    between atoms: _123  and  _124
REMARK   56  A    between atoms: _127  and  _129
REMARK   57  A    between atoms: _129  and  _130
REMARK   58  A    between atoms: _129  and  _132
REMARK   59  A    between atoms: _135  and  _137
REMARK   60  A    between atoms: _137  and  _138
REMARK   61  A    between atoms: _137  and  _140
REMARK   62  A    between atoms: _140  and  _141
REMARK   63  A    between atoms: _146  and  _148
REMARK   64  A    between atoms: _148  and  _149
REMARK   65  A    between atoms: _148  and  _151
REMARK   66  A    between atoms: _151  and  _152
REMARK   67  A    between atoms: _155  and  _157
REMARK   68  A    between atoms: _157  and  _158
REMARK   69  A    between atoms: _157  and  _160
REMARK   70  A    between atoms: _160  and  _161
REMARK   71  A    between atoms: _164  and  _166
REMARK   72  A    between atoms: _166  and  _167
REMARK   73  A    between atoms: _166  and  _169
REMARK   74  A    between atoms: _169  and  _170
REMARK   75  A    between atoms: _170  and  _171
REMARK   76  A    between atoms: _174  and  _176
REMARK   77  A    between atoms: _176  and  _177
REMARK   78  A    between atoms: _176  and  _179
REMARK   79  A    between atoms: _179  and  _180
REMARK   80  A    between atoms: _180  and  _181
REMARK   81  A    between atoms: _183  and  _185
REMARK   82  A    between atoms: _185  and  _186
REMARK   83  A    between atoms: _185  and  _188
REMARK   84  A    between atoms: _188  and  _189
REMARK   85  A    between atoms: _191  and  _193
REMARK   86  A    between atoms: _193  and  _194
REMARK   87  A    between atoms: _193  and  _196
REMARK   88  A    between atoms: _196  and  _197
REMARK   89  A    between atoms: _202  and  _204
REMARK   90  A    between atoms: _204  and  _205
REMARK   91  A    between atoms: _208  and  _210
REMARK   92  A    between atoms: _210  and  _211
REMARK   93  A    between atoms: _210  and  _213
REMARK   94  A    between atoms: _213  and  _214
REMARK   95  A    between atoms: _217  and  _219
REMARK   96  A    between atoms: _219  and  _220
REMARK   97  A    between atoms: _219  and  _222
REMARK   98  A    between atoms: _225  and  _227
REMARK   99  A    between atoms: _227  and  _228
REMARK  100  A    between atoms: _231  and  _232
REMARK  101  A    between atoms: _237  and  _239
REMARK  102  A    between atoms: _239  and  _240
REMARK  103  A    between atoms: _239  and  _242
REMARK  104  A    between atoms: _242  and  _243
REMARK  105  A    between atoms: _245  and  _247
REMARK  106  A    between atoms: _247  and  _248
REMARK  107  A    between atoms: _247  and  _250
REMARK  108  A    between atoms: _250  and  _251
REMARK  109  A    between atoms: _254  and  _256
REMARK  110  A    between atoms: _256  and  _257
REMARK  111  A    between atoms: _256  and  _259
REMARK  112  A    between atoms: _259  and  _260
REMARK  113  A    between atoms: _260  and  _261
REMARK  114  A    between atoms: _261  and  _262
REMARK  115  A    between atoms: _271  and  _273
REMARK  116  A    between atoms: _273  and  _274
REMARK  117  A    between atoms: _273  and  _276
REMARK  118  A    between atoms: _276  and  _277
REMARK  119  A    between atoms: _280  and  _281
REMARK  120  A    between atoms: _286  and  _288
REMARK  121  A    between atoms: _288  and  _289
REMARK  122  A    between atoms: _291  and  _293
REMARK  123  A    between atoms: _293  and  _294
REMARK  124  A    between atoms: _293  and  _296
REMARK  125  A    between atoms: _299  and  _301
REMARK  126  A    between atoms: _301  and  _302
REMARK  127  A    between atoms: _304  and  _306
REMARK  128  A    between atoms: _306  and  _307
REMARK  129  A    between atoms: _310  and  _312
REMARK  130  A    between atoms: _312  and  _313
REMARK  131  A    between atoms: _312  and  _315
REMARK  132  A    between atoms: _315  and  _316
REMARK  133  A    between atoms: _316  and  _317
REMARK  134  A    between atoms: _322  and  _324
REMARK  135  A    between atoms: _324  and  _325
REMARK  136  A    between atoms: _327  and  _329
REMARK  137  A    between atoms: _329  and  _330
REMARK  138  A    between atoms: _332  and  _334
REMARK  139  A    between atoms: _334  and  _335
REMARK  140  A    between atoms: _334  and  _337
REMARK  141  A    between atoms: _337  and  _338
REMARK  142  A    between atoms: _341  and  _343
REMARK  143  A    between atoms: _343  and  _344
REMARK  144  A    between atoms: _343  and  _346
REMARK  145  A    between atoms: _349  and  _351
REMARK  146  A    between atoms: _351  and  _352
REMARK  147  A    between atoms: _354  and  _356
REMARK  148  A    between atoms: _356  and  _357
REMARK  149  A    between atoms: _356  and  _359
REMARK  150  A    between atoms: _359  and  _360
REMARK  151  A    between atoms: _360  and  _361
REMARK  152  A    between atoms: _361  and  _362
REMARK  153  A    between atoms: _371  and  _373
REMARK  154  A    between atoms: _373  and  _374
REMARK  155  A    between atoms: _373  and  _376
REMARK  156  A    between atoms: _376  and  _377
REMARK  157  A    between atoms: _379  and  _381
REMARK  158  A    between atoms: _381  and  _382
REMARK  159  A    between atoms: _381  and  _384
REMARK  160  A    between atoms: _384  and  _385
REMARK  161  A    between atoms: _388  and  _390
REMARK  162  A    between atoms: _390  and  _391
REMARK  163  A    between atoms: _390  and  _393
REMARK  164  A    between atoms: _393  and  _394
REMARK  165  A    between atoms: _399  and  _400
REMARK  166  A    between atoms: _402  and  _404
REMARK  167  A    between atoms: _404  and  _405
REMARK  168  A    between atoms: _404  and  _407
REMARK  169  A    between atoms: _407  and  _408
REMARK  170  A    between atoms: _411  and  _413
REMARK  171  A    between atoms: _413  and  _414
REMARK  172  A    between atoms: _417  and  _419
REMARK  173  A    between atoms: _419  and  _420
REMARK  174  A    between atoms: _419  and  _422
REMARK  175  A    between atoms: _422  and  _423
REMARK  176  A    between atoms: _426  and  _428
REMARK  177  A    between atoms: _428  and  _429
REMARK  178  A    between atoms: _428  and  _431
REMARK  179  A    between atoms: _431  and  _432
REMARK  180  A    between atoms: _436  and  _437
REMARK  181  A    between atoms: _442  and  _444
REMARK  182  A    between atoms: _444  and  _445
REMARK  183  A    between atoms: _444  and  _447
REMARK  184  A    between atoms: _447  and  _448
REMARK  185  A    between atoms: _448  and  _449
REMARK  186  A    between atoms: _452  and  _454
REMARK  187  A    between atoms: _454  and  _455
REMARK  188  A    between atoms: _454  and  _457
REMARK  189  A    between atoms: _457  and  _458
REMARK  190  A    between atoms: _461  and  _463
REMARK  191  A    between atoms: _463  and  _464
REMARK  192  A    between atoms: _463  and  _466
REMARK  193  A    between atoms: _466  and  _467
REMARK  194  A    between atoms: _472  and  _474
REMARK  195  A    between atoms: _474  and  _475
REMARK  196  A    between atoms: _474  and  _477
REMARK  197  A    between atoms: _477  and  _478
REMARK  198  A    between atoms: _478  and  _479
REMARK  199  A    between atoms: _479  and  _480
REMARK  200  A    between atoms: _480  and  _481
REMARK  201  A    between atoms: _485  and  _487
REMARK  202  A    between atoms: _487  and  _488
REMARK  203  A    between atoms: _487  and  _490
REMARK  204  A    between atoms: _490  and  _491
REMARK                            x       y       z     vdW  Elec       q    Type
REMARK                         _______ _______ _______ _____ _____    ______ ____
ROOT
ATOM      1  O   HOH     1      12.978  -0.546   7.606  0.00  0.00    +0.000 OA
ENDROOT
TORSDOF 0
REMARK  Name = ../refined-set-2016/3g1v/3g1v_pocket.pdb
REMARK  204 active torsions:
REMARK  status: ('A' for Active; 'I' for Inactive)
REMARK    1  A    between atoms: _1  and  _3
REMARK    2  A    between atoms: _3  and  _4
REMARK    3  A    between atoms: _3  and  _6
REMARK    4  A    between atoms: _6  and  _7
REMARK    5  A    between atoms: _10  and  _12
REMARK    6  A    between atoms: _12  and  _13
REMARK    7  A    between atoms: _12  and  _15
REMARK    8  A    between atoms: _15  and  _16
REMARK    9  A    between atoms: _19  and  _21
REMARK   10  A    between atoms: _21  and  _22
REMARK   11  A    between atoms: _25  and  _27
REMARK   12  A    between atoms: _27  and  _28
REMARK   13  A    between atoms: _27  and  _30
REMARK   14  A    between atoms: _30  and  _31
REMARK   15  A    between atoms: _31  and  _32
REMARK   16  A    between atoms: _34  and  _36
REMARK   17  A    between atoms: _36  and  _37
REMARK   18  A    between atoms: _36  and  _39
REMARK   19  A    between atoms: _39  and  _40
REMARK   20  A    between atoms: _43  and  _45
REMARK   21  A    between atoms: _45  and  _46
REMARK   22  A    between atoms: _45  and  _48
REMARK   23  A    between atoms: _48  and  _49
REMARK   24  A    between atoms: _49  and  _50
REMARK   25  A    between atoms: _50  and  _51
REMARK   26  A    between atoms: _51  and  _52
REMARK   27  A    between atoms: _56  and  _58
REMARK   28  A    between atoms: _58  and  _59
REMARK   29  A    between atoms: _58  and  _61
REMARK   30  A    between atoms: _61  and  _62
REMARK   31  A    between atoms: _65  and  _67
REMARK   32  A    between atoms: _67  and  _68
REMARK   33  A    between atoms: _70  and  _72
REMARK   34  A    between atoms: _72  and  _73
REMARK   35  A    between atoms: _72  and  _75
REMARK   36  A    between atoms: _75  and  _76
REMARK   37  A    between atoms: _81  and  _82
REMARK   38  A    between atoms: _85  and  _86
REMARK   39  A    between atoms: _91  and  _93
REMARK   40  A    between atoms: _93  and  _94
REMARK   41  A    between atoms: _93  and  _96
REMARK   42  A    between atoms: _96  and  _97
REMARK   43  A    between atoms: _100  and  _102
REMARK   44  A    between atoms: _102  and  _103
REMARK   45  A    between atoms: _105  and  _107
REMARK   46  A    between atoms: _107  and  _108
REMARK   47  A    between atoms: _107  and  _110
REMARK   48  A    between atoms: _110  and  _111
REMARK   49  A    between atoms: _111  and  _112
REMARK   50  A    between atoms: _112  and  _113
REMARK   51  A    between atoms: _113  and  _114
REMARK   52  A    between atoms: _118  and  _120
REMARK   53  A    between atoms: _120  and  _121
REMARK   54  A    between atoms: _120  and  _123
REMARK   55  A    between atoms: _123  and  _124
REMARK   56  A    between atoms: _127  and  _129
REMARK   57  A    between atoms: _129  and  _130
REMARK   58  A    between atoms: _129  and  _132
REMARK   59  A    between atoms: _135  and  _137
REMARK   60  A    between atoms: _137  and  _138
REMARK   61  A    between atoms: _137  and  _140
REMARK   62  A    between atoms: _140  and  _141
REMARK   63  A    between atoms: _146  and  _148
REMARK   64  A    between atoms: _148  and  _149
REMARK   65  A    between atoms: _148  and  _151
REMARK   66  A    between atoms: _151  and  _152
REMARK   67  A    between atoms: _155  and  _157
REMARK   68  A    between atoms: _157  and  _158
REMARK   69  A    between atoms: _157  and  _160
REMARK   70  A    between atoms: _160  and  _161
REMARK   71  A    between atoms: _164  and  _166
REMARK   72  A    between atoms: _166  and  _167
REMARK   73  A    between atoms: _166  and  _169
REMARK   74  A    between atoms: _169  and  _170
REMARK   75  A    between atoms: _170  and  _171
REMARK   76  A    between atoms: _174  and  _176
REMARK   77  A    between atoms: _176  and  _177
REMARK   78  A    between atoms: _176  and  _179
REMARK   79  A    between atoms: _179  and  _180
REMARK   80  A    between atoms: _180  and  _181
REMARK   81  A    between atoms: _183  and  _185
REMARK   82  A    between atoms: _185  and  _186
REMARK   83  A    between atoms: _185  and  _188
REMARK   84  A    between atoms: _188  and  _189
REMARK   85  A    between atoms: _191  and  _193
REMARK   86  A    between atoms: _193  and  _194
REMARK   87  A    between atoms: _193  and  _196
REMARK   88  A    between atoms: _196  and  _197
REMARK   89  A    between atoms: _202  and  _204
REMARK   90  A    between atoms: _204  and  _205
REMARK   91  A    between atoms: _208  and  _210
REMARK   92  A    between atoms: _210  and  _211
REMARK   93  A    between atoms: _210  and  _213
REMARK   94  A    between atoms: _213  and  _214
REMARK   95  A    between atoms: _217  and  _219
REMARK   96  A    between atoms: _219  and  _220
REMARK   97  A    between atoms: _219  and  _222
REMARK   98  A    between atoms: _225  and  _227
REMARK   99  A    between atoms: _227  and  _228
REMARK  100  A    between atoms: _231  and  _232
REMARK  101  A    between atoms: _237  and  _239
REMARK  102  A    between atoms: _239  and  _240
REMARK  103  A    between atoms: _239  and  _242
REMARK  104  A    between atoms: _242  and  _243
REMARK  105  A    between atoms: _245  and  _247
REMARK  106  A    between atoms: _247  and  _248
REMARK  107  A    between atoms: _247  and  _250
REMARK  108  A    between atoms: _250  and  _251
REMARK  109  A    between atoms: _254  and  _256
REMARK  110  A    between atoms: _256  and  _257
REMARK  111  A    between atoms: _256  and  _259
REMARK  112  A    between atoms: _259  and  _260
REMARK  113  A    between atoms: _260  and  _261
REMARK  114  A    between atoms: _261  and  _262
REMARK  115  A    between atoms: _271  and  _273
REMARK  116  A    between atoms: _273  and  _274
REMARK  117  A    between atoms: _273  and  _276
REMARK  118  A    between atoms: _276  and  _277
REMARK  119  A    between atoms: _280  and  _281
REMARK  120  A    between atoms: _286  and  _288
REMARK  121  A    between atoms: _288  and  _289
REMARK  122  A    between atoms: _291  and  _293
REMARK  123  A    between atoms: _293  and  _294
REMARK  124  A    between atoms: _293  and  _296
REMARK  125  A    between atoms: _299  and  _301
REMARK  126  A    between atoms: _301  and  _302
REMARK  127  A    between atoms: _304  and  _306
REMARK  128  A    between atoms: _306  and  _307
REMARK  129  A    between atoms: _310  and  _312
REMARK  130  A    between atoms: _312  and  _313
REMARK  131  A    between atoms: _312  and  _315
REMARK  132  A    between atoms: _315  and  _316
REMARK  133  A    between atoms: _316  and  _317
REMARK  134  A    between atoms: _322  and  _324
REMARK  135  A    between atoms: _324  and  _325
REMARK  136  A    between atoms: _327  and  _329
REMARK  137  A    between atoms: _329  and  _330
REMARK  138  A    between atoms: _332  and  _334
REMARK  139  A    between atoms: _334  and  _335
REMARK  140  A    between atoms: _334  and  _337
REMARK  141  A    between atoms: _337  and  _338
REMARK  142  A    between atoms: _341  and  _343
REMARK  143  A    between atoms: _343  and  _344
REMARK  144  A    between atoms: _343  and  _346
REMARK  145  A    between atoms: _349  and  _351
REMARK  146  A    between atoms: _351  and  _352
REMARK  147  A    between atoms: _354  and  _356
REMARK  148  A    between atoms: _356  and  _357
REMARK  149  A    between atoms: _356  and  _359
REMARK  150  A    between atoms: _359  and  _360
REMARK  151  A    between atoms: _360  and  _361
REMARK  152  A    between atoms: _361  and  _362
REMARK  153  A    between atoms: _371  and  _373
REMARK  154  A    between atoms: _373  and  _374
REMARK  155  A    between atoms: _373  and  _376
REMARK  156  A    between atoms: _376  and  _377
REMARK  157  A    between atoms: _379  and  _381
REMARK  158  A    between atoms: _381  and  _382
REMARK  159  A    between atoms: _381  and  _384
REMARK  160  A    between atoms: _384  and  _385
REMARK  161  A    between atoms: _388  and  _390
REMARK  162  A    between atoms: _390  and  _391
REMARK  163  A    between atoms: _390  and  _393
REMARK  164  A    between atoms: _393  and  _394
REMARK  165  A    between atoms: _399  and  _400
REMARK  166  A    between atoms: _402  and  _404
REMARK  167  A    between atoms: _404  and  _405
REMARK  168  A    between atoms: _404  and  _407
REMARK  169  A    between atoms: _407  and  _408
REMARK  170  A    between atoms: _411  and  _413
REMARK  171  A    between atoms: _413  and  _414
REMARK  172  A    between atoms: _417  and  _419
REMARK  173  A    between atoms: _419  and  _420
REMARK  174  A    between atoms: _419  and  _422
REMARK  175  A    between atoms: _422  and  _423
REMARK  176  A    between atoms: _426  and  _428
REMARK  177  A    between atoms: _428  and  _429
REMARK  178  A    between atoms: _428  and  _431
REMARK  179  A    between atoms: _431  and  _432
REMARK  180  A    between atoms: _436  and  _437
REMARK  181  A    between atoms: _442  and  _444
REMARK  182  A    between atoms: _444  and  _445
REMARK  183  A    between atoms: _444  and  _447
REMARK  184  A    between atoms: _447  and  _448
REMARK  185  A    between atoms: _448  and  _449
REMARK  186  A    between atoms: _452  and  _454
REMARK  187  A    between atoms: _454  and  _455
REMARK  188  A    between atoms: _454  and  _457
REMARK  189  A    between atoms: _457  and  _458
REMARK  190  A    between atoms: _461  and  _463
REMARK  191  A    between atoms: _463  and  _464
REMARK  192  A    between atoms: _463  and  _466
REMARK  193  A    between atoms: _466  and  _467
REMARK  194  A    between atoms: _472  and  _474
REMARK  195  A    between atoms: _474  and  _475
REMARK  196  A    between atoms: _474  and  _477
REMARK  197  A    between atoms: _477  and  _478
REMARK  198  A    between atoms: _478  and  _479
REMARK  199  A    between atoms: _479  and  _480
REMARK  200  A    between atoms: _480  and  _481
REMARK  201  A    between atoms: _485  and  _487
REMARK  202  A    between atoms: _487  and  _488
REMARK  203  A    between atoms: _487  and  _490
REMARK  204  A    between atoms: _490  and  _491
REMARK                            x       y       z     vdW  Elec       q    Type
REMARK                         _______ _______ _______ _____ _____    ______ ____
ROOT
ATOM      1  O   HOH     1      13.598  -4.623  10.951  0.00  0.00    +0.000 OA
ENDROOT
TORSDOF 0
REMARK  Name = ../refined-set-2016/3g1v/3g1v_pocket.pdb
REMARK  204 active torsions:
REMARK  status: ('A' for Active; 'I' for Inactive)
REMARK    1  A    between atoms: _1  and  _3
REMARK    2  A    between atoms: _3  and  _4
REMARK    3  A    between atoms: _3  and  _6
REMARK    4  A    between atoms: _6  and  _7
REMARK    5  A    between atoms: _10  and  _12
REMARK    6  A    between atoms: _12  and  _13
REMARK    7  A    between atoms: _12  and  _15
REMARK    8  A    between atoms: _15  and  _16
REMARK    9  A    between atoms: _19  and  _21
REMARK   10  A    between atoms: _21  and  _22
REMARK   11  A    between atoms: _25  and  _27
REMARK   12  A    between atoms: _27  and  _28
REMARK   13  A    between atoms: _27  and  _30
REMARK   14  A    between atoms: _30  and  _31
REMARK   15  A    between atoms: _31  and  _32
REMARK   16  A    between atoms: _34  and  _36
REMARK   17  A    between atoms: _36  and  _37
REMARK   18  A    between atoms: _36  and  _39
REMARK   19  A    between atoms: _39  and  _40
REMARK   20  A    between atoms: _43  and  _45
REMARK   21  A    between atoms: _45  and  _46
REMARK   22  A    between atoms: _45  and  _48
REMARK   23  A    between atoms: _48  and  _49
REMARK   24  A    between atoms: _49  and  _50
REMARK   25  A    between atoms: _50  and  _51
REMARK   26  A    between atoms: _51  and  _52
REMARK   27  A    between atoms: _56  and  _58
REMARK   28  A    between atoms: _58  and  _59
REMARK   29  A    between atoms: _58  and  _61
REMARK   30  A    between atoms: _61  and  _62
REMARK   31  A    between atoms: _65  and  _67
REMARK   32  A    between atoms: _67  and  _68
REMARK   33  A    between atoms: _70  and  _72
REMARK   34  A    between atoms: _72  and  _73
REMARK   35  A    between atoms: _72  and  _75
REMARK   36  A    between atoms: _75  and  _76
REMARK   37  A    between atoms: _81  and  _82
REMARK   38  A    between atoms: _85  and  _86
REMARK   39  A    between atoms: _91  and  _93
REMARK   40  A    between atoms: _93  and  _94
REMARK   41  A    between atoms: _93  and  _96
REMARK   42  A    between atoms: _96  and  _97
REMARK   43  A    between atoms: _100  and  _102
REMARK   44  A    between atoms: _102  and  _103
REMARK   45  A    between atoms: _105  and  _107
REMARK   46  A    between atoms: _107  and  _108
REMARK   47  A    between atoms: _107  and  _110
REMARK   48  A    between atoms: _110  and  _111
REMARK   49  A    between atoms: _111  and  _112
REMARK   50  A    between atoms: _112  and  _113
REMARK   51  A    between atoms: _113  and  _114
REMARK   52  A    between atoms: _118  and  _120
REMARK   53  A    between atoms: _120  and  _121
REMARK   54  A    between atoms: _120  and  _123
REMARK   55  A    between atoms: _123  and  _124
REMARK   56  A    between atoms: _127  and  _129
REMARK   57  A    between atoms: _129  and  _130
REMARK   58  A    between atoms: _129  and  _132
REMARK   59  A    between atoms: _135  and  _137
REMARK   60  A    between atoms: _137  and  _138
REMARK   61  A    between atoms: _137  and  _140
REMARK   62  A    between atoms: _140  and  _141
REMARK   63  A    between atoms: _146  and  _148
REMARK   64  A    between atoms: _148  and  _149
REMARK   65  A    between atoms: _148  and  _151
REMARK   66  A    between atoms: _151  and  _152
REMARK   67  A    between atoms: _155  and  _157
REMARK   68  A    between atoms: _157  and  _158
REMARK   69  A    between atoms: _157  and  _160
REMARK   70  A    between atoms: _160  and  _161
REMARK   71  A    between atoms: _164  and  _166
REMARK   72  A    between atoms: _166  and  _167
REMARK   73  A    between atoms: _166  and  _169
REMARK   74  A    between atoms: _169  and  _170
REMARK   75  A    between atoms: _170  and  _171
REMARK   76  A    between atoms: _174  and  _176
REMARK   77  A    between atoms: _176  and  _177
REMARK   78  A    between atoms: _176  and  _179
REMARK   79  A    between atoms: _179  and  _180
REMARK   80  A    between atoms: _180  and  _181
REMARK   81  A    between atoms: _183  and  _185
REMARK   82  A    between atoms: _185  and  _186
REMARK   83  A    between atoms: _185  and  _188
REMARK   84  A    between atoms: _188  and  _189
REMARK   85  A    between atoms: _191  and  _193
REMARK   86  A    between atoms: _193  and  _194
REMARK   87  A    between atoms: _193  and  _196
REMARK   88  A    between atoms: _196  and  _197
REMARK   89  A    between atoms: _202  and  _204
REMARK   90  A    between atoms: _204  and  _205
REMARK   91  A    between atoms: _208  and  _210
REMARK   92  A    between atoms: _210  and  _211
REMARK   93  A    between atoms: _210  and  _213
REMARK   94  A    between atoms: _213  and  _214
REMARK   95  A    between atoms: _217  and  _219
REMARK   96  A    between atoms: _219  and  _220
REMARK   97  A    between atoms: _219  and  _222
REMARK   98  A    between atoms: _225  and  _227
REMARK   99  A    between atoms: _227  and  _228
REMARK  100  A    between atoms: _231  and  _232
REMARK  101  A    between atoms: _237  and  _239
REMARK  102  A    between atoms: _239  and  _240
REMARK  103  A    between atoms: _239  and  _242
REMARK  104  A    between atoms: _242  and  _243
REMARK  105  A    between atoms: _245  and  _247
REMARK  106  A    between atoms: _247  and  _248
REMARK  107  A    between atoms: _247  and  _250
REMARK  108  A    between atoms: _250  and  _251
REMARK  109  A    between atoms: _254  and  _256
REMARK  110  A    between atoms: _256  and  _257
REMARK  111  A    between atoms: _256  and  _259
REMARK  112  A    between atoms: _259  and  _260
REMARK  113  A    between atoms: _260  and  _261
REMARK  114  A    between atoms: _261  and  _262
REMARK  115  A    between atoms: _271  and  _273
REMARK  116  A    between atoms: _273  and  _274
REMARK  117  A    between atoms: _273  and  _276
REMARK  118  A    between atoms: _276  and  _277
REMARK  119  A    between atoms: _280  and  _281
REMARK  120  A    between atoms: _286  and  _288
REMARK  121  A    between atoms: _288  and  _289
REMARK  122  A    between atoms: _291  and  _293
REMARK  123  A    between atoms: _293  and  _294
REMARK  124  A    between atoms: _293  and  _296
REMARK  125  A    between atoms: _299  and  _301
REMARK  126  A    between atoms: _301  and  _302
REMARK  127  A    between atoms: _304  and  _306
REMARK  128  A    between atoms: _306  and  _307
REMARK  129  A    between atoms: _310  and  _312
REMARK  130  A    between atoms: _312  and  _313
REMARK  131  A    between atoms: _312  and  _315
REMARK  132  A    between atoms: _315  and  _316
REMARK  133  A    between atoms: _316  and  _317
REMARK  134  A    between atoms: _322  and  _324
REMARK  135  A    between atoms: _324  and  _325
REMARK  136  A    between atoms: _327  and  _329
REMARK  137  A    between atoms: _329  and  _330
REMARK  138  A    between atoms: _332  and  _334
REMARK  139  A    between atoms: _334  and  _335
REMARK  140  A    between atoms: _334  and  _337
REMARK  141  A    between atoms: _337  and  _338
REMARK  142  A    between atoms: _341  and  _343
REMARK  143  A    between atoms: _343  and  _344
REMARK  144  A    between atoms: _343  and  _346
REMARK  145  A    between atoms: _349  and  _351
REMARK  146  A    between atoms: _351  and  _352
REMARK  147  A    between atoms: _354  and  _356
REMARK  148  A    between atoms: _356  and  _357
REMARK  149  A    between atoms: _356  and  _359
REMARK  150  A    between atoms: _359  and  _360
REMARK  151  A    between atoms: _360  and  _361
REMARK  152  A    between atoms: _361  and  _362
REMARK  153  A    between atoms: _371  and  _373
REMARK  154  A    between atoms: _373  and  _374
REMARK  155  A    between atoms: _373  and  _376
REMARK  156  A    between atoms: _376  and  _377
REMARK  157  A    between atoms: _379  and  _381
REMARK  158  A    between atoms: _381  and  _382
REMARK  159  A    between atoms: _381  and  _384
REMARK  160  A    between atoms: _384  and  _385
REMARK  161  A    between atoms: _388  and  _390
REMARK  162  A    between atoms: _390  and  _391
REMARK  163  A    between atoms: _390  and  _393
REMARK  164  A    between atoms: _393  and  _394
REMARK  165  A    between atoms: _399  and  _400
REMARK  166  A    between atoms: _402  and  _404
REMARK  167  A    between atoms: _404  and  _405
REMARK  168  A    between atoms: _404  and  _407
REMARK  169  A    between atoms: _407  and  _408
REMARK  170  A    between atoms: _411  and  _413
REMARK  171  A    between atoms: _413  and  _414
REMARK  172  A    between atoms: _417  and  _419
REMARK  173  A    between atoms: _419  and  _420
REMARK  174  A    between atoms: _419  and  _422
REMARK  175  A    between atoms: _422  and  _423
REMARK  176  A    between atoms: _426  and  _428
REMARK  177  A    between atoms: _428  and  _429
REMARK  178  A    between atoms: _428  and  _431
REMARK  179  A    between atoms: _431  and  _432
REMARK  180  A    between atoms: _436  and  _437
REMARK  181  A    between atoms: _442  and  _444
REMARK  182  A    between atoms: _444  and  _445
REMARK  183  A    between atoms: _444  and  _447
REMARK  184  A    between atoms: _447  and  _448
REMARK  185  A    between atoms: _448  and  _449
REMARK  186  A    between atoms: _452  and  _454
REMARK  187  A    between atoms: _454  and  _455
REMARK  188  A    between atoms: _454  and  _457
REMARK  189  A    between atoms: _457  and  _458
REMARK  190  A    between atoms: _461  and  _463
REMARK  191  A    between atoms: _463  and  _464
REMARK  192  A    between atoms: _463  and  _466
REMARK  193  A    between atoms: _466  and  _467
REMARK  194  A    between atoms: _472  and  _474
REMARK  195  A    between atoms: _474  and  _475
REMARK  196  A    between atoms: _474  and  _477
REMARK  197  A    between atoms: _477  and  _478
REMARK  198  A    between atoms: _478  and  _479
REMARK  199  A    between atoms: _479  and  _480
REMARK  200  A    between atoms: _480  and  _481
REMARK  201  A    between atoms: _485  and  _487
REMARK  202  A    between atoms: _487  and  _488
REMARK  203  A    between atoms: _487  and  _490
REMARK  204  A    between atoms: _490  and  _491
REMARK                            x       y       z     vdW  Elec       q    Type
REMARK                         _______ _______ _______ _____ _____    ______ ____
ROOT
ATOM      1  O   HOH     1       8.730   4.130  10.878  0.00  0.00    +0.000 OA
ENDROOT
TORSDOF 0
REMARK  Name = ../refined-set-2016/3g1v/3g1v_pocket.pdb
REMARK  204 active torsions:
REMARK  status: ('A' for Active; 'I' for Inactive)
REMARK    1  A    between atoms: _1  and  _3
REMARK    2  A    between atoms: _3  and  _4
REMARK    3  A    between atoms: _3  and  _6
REMARK    4  A    between atoms: _6  and  _7
REMARK    5  A    between atoms: _10  and  _12
REMARK    6  A    between atoms: _12  and  _13
REMARK    7  A    between atoms: _12  and  _15
REMARK    8  A    between atoms: _15  and  _16
REMARK    9  A    between atoms: _19  and  _21
REMARK   10  A    between atoms: _21  and  _22
REMARK   11  A    between atoms: _25  and  _27
REMARK   12  A    between atoms: _27  and  _28
REMARK   13  A    between atoms: _27  and  _30
REMARK   14  A    between atoms: _30  and  _31
REMARK   15  A    between atoms: _31  and  _32
REMARK   16  A    between atoms: _34  and  _36
REMARK   17  A    between atoms: _36  and  _37
REMARK   18  A    between atoms: _36  and  _39
REMARK   19  A    between atoms: _39  and  _40
REMARK   20  A    between atoms: _43  and  _45
REMARK   21  A    between atoms: _45  and  _46
REMARK   22  A    between atoms: _45  and  _48
REMARK   23  A    between atoms: _48  and  _49
REMARK   24  A    between atoms: _49  and  _50
REMARK   25  A    between atoms: _50  and  _51
REMARK   26  A    between atoms: _51  and  _52
REMARK   27  A    between atoms: _56  and  _58
REMARK   28  A    between atoms: _58  and  _59
REMARK   29  A    between atoms: _58  and  _61
REMARK   30  A    between atoms: _61  and  _62
REMARK   31  A    between atoms: _65  and  _67
REMARK   32  A    between atoms: _67  and  _68
REMARK   33  A    between atoms: _70  and  _72
REMARK   34  A    between atoms: _72  and  _73
REMARK   35  A    between atoms: _72  and  _75
REMARK   36  A    between atoms: _75  and  _76
REMARK   37  A    between atoms: _81  and  _82
REMARK   38  A    between atoms: _85  and  _86
REMARK   39  A    between atoms: _91  and  _93
REMARK   40  A    between atoms: _93  and  _94
REMARK   41  A    between atoms: _93  and  _96
REMARK   42  A    between atoms: _96  and  _97
REMARK   43  A    between atoms: _100  and  _102
REMARK   44  A    between atoms: _102  and  _103
REMARK   45  A    between atoms: _105  and  _107
REMARK   46  A    between atoms: _107  and  _108
REMARK   47  A    between atoms: _107  and  _110
REMARK   48  A    between atoms: _110  and  _111
REMARK   49  A    between atoms: _111  and  _112
REMARK   50  A    between atoms: _112  and  _113
REMARK   51  A    between atoms: _113  and  _114
REMARK   52  A    between atoms: _118  and  _120
REMARK   53  A    between atoms: _120  and  _121
REMARK   54  A    between atoms: _120  and  _123
REMARK   55  A    between atoms: _123  and  _124
REMARK   56  A    between atoms: _127  and  _129
REMARK   57  A    between atoms: _129  and  _130
REMARK   58  A    between atoms: _129  and  _132
REMARK   59  A    between atoms: _135  and  _137
REMARK   60  A    between atoms: _137  and  _138
REMARK   61  A    between atoms: _137  and  _140
REMARK   62  A    between atoms: _140  and  _141
REMARK   63  A    between atoms: _146  and  _148
REMARK   64  A    between atoms: _148  and  _149
REMARK   65  A    between atoms: _148  and  _151
REMARK   66  A    between atoms: _151  and  _152
REMARK   67  A    between atoms: _155  and  _157
REMARK   68  A    between atoms: _157  and  _158
REMARK   69  A    between atoms: _157  and  _160
REMARK   70  A    between atoms: _160  and  _161
REMARK   71  A    between atoms: _164  and  _166
REMARK   72  A    between atoms: _166  and  _167
REMARK   73  A    between atoms: _166  and  _169
REMARK   74  A    between atoms: _169  and  _170
REMARK   75  A    between atoms: _170  and  _171
REMARK   76  A    between atoms: _174  and  _176
REMARK   77  A    between atoms: _176  and  _177
REMARK   78  A    between atoms: _176  and  _179
REMARK   79  A    between atoms: _179  and  _180
REMARK   80  A    between atoms: _180  and  _181
REMARK   81  A    between atoms: _183  and  _185
REMARK   82  A    between atoms: _185  and  _186
REMARK   83  A    between atoms: _185  and  _188
REMARK   84  A    between atoms: _188  and  _189
REMARK   85  A    between atoms: _191  and  _193
REMARK   86  A    between atoms: _193  and  _194
REMARK   87  A    between atoms: _193  and  _196
REMARK   88  A    between atoms: _196  and  _197
REMARK   89  A    between atoms: _202  and  _204
REMARK   90  A    between atoms: _204  and  _205
REMARK   91  A    between atoms: _208  and  _210
REMARK   92  A    between atoms: _210  and  _211
REMARK   93  A    between atoms: _210  and  _213
REMARK   94  A    between atoms: _213  and  _214
REMARK   95  A    between atoms: _217  and  _219
REMARK   96  A    between atoms: _219  and  _220
REMARK   97  A    between atoms: _219  and  _222
REMARK   98  A    between atoms: _225  and  _227
REMARK   99  A    between atoms: _227  and  _228
REMARK  100  A    between atoms: _231  and  _232
REMARK  101  A    between atoms: _237  and  _239
REMARK  102  A    between atoms: _239  and  _240
REMARK  103  A    between atoms: _239  and  _242
REMARK  104  A    between atoms: _242  and  _243
REMARK  105  A    between atoms: _245  and  _247
REMARK  106  A    between atoms: _247  and  _248
REMARK  107  A    between atoms: _247  and  _250
REMARK  108  A    between atoms: _250  and  _251
REMARK  109  A    between atoms: _254  and  _256
REMARK  110  A    between atoms: _256  and  _257
REMARK  111  A    between atoms: _256  and  _259
REMARK  112  A    between atoms: _259  and  _260
REMARK  113  A    between atoms: _260  and  _261
REMARK  114  A    between atoms: _261  and  _262
REMARK  115  A    between atoms: _271  and  _273
REMARK  116  A    between atoms: _273  and  _274
REMARK  117  A    between atoms: _273  and  _276
REMARK  118  A    between atoms: _276  and  _277
REMARK  119  A    between atoms: _280  and  _281
REMARK  120  A    between atoms: _286  and  _288
REMARK  121  A    between atoms: _288  and  _289
REMARK  122  A    between atoms: _291  and  _293
REMARK  123  A    between atoms: _293  and  _294
REMARK  124  A    between atoms: _293  and  _296
REMARK  125  A    between atoms: _299  and  _301
REMARK  126  A    between atoms: _301  and  _302
REMARK  127  A    between atoms: _304  and  _306
REMARK  128  A    between atoms: _306  and  _307
REMARK  129  A    between atoms: _310  and  _312
REMARK  130  A    between atoms: _312  and  _313
REMARK  131  A    between atoms: _312  and  _315
REMARK  132  A    between atoms: _315  and  _316
REMARK  133  A    between atoms: _316  and  _317
REMARK  134  A    between atoms: _322  and  _324
REMARK  135  A    between atoms: _324  and  _325
REMARK  136  A    between atoms: _327  and  _329
REMARK  137  A    between atoms: _329  and  _330
REMARK  138  A    between atoms: _332  and  _334
REMARK  139  A    between atoms: _334  and  _335
REMARK  140  A    between atoms: _334  and  _337
REMARK  141  A    between atoms: _337  and  _338
REMARK  142  A    between atoms: _341  and  _343
REMARK  143  A    between atoms: _343  and  _344
REMARK  144  A    between atoms: _343  and  _346
REMARK  145  A    between atoms: _349  and  _351
REMARK  146  A    between atoms: _351  and  _352
REMARK  147  A    between atoms: _354  and  _356
REMARK  148  A    between atoms: _356  and  _357
REMARK  149  A    between atoms: _356  and  _359
REMARK  150  A    between atoms: _359  and  _360
REMARK  151  A    between atoms: _360  and  _361
REMARK  152  A    between atoms: _361  and  _362
REMARK  153  A    between atoms: _371  and  _373
REMARK  154  A    between atoms: _373  and  _374
REMARK  155  A    between atoms: _373  and  _376
REMARK  156  A    between atoms: _376  and  _377
REMARK  157  A    between atoms: _379  and  _381
REMARK  158  A    between atoms: _381  and  _382
REMARK  159  A    between atoms: _381  and  _384
REMARK  160  A    between atoms: _384  and  _385
REMARK  161  A    between atoms: _388  and  _390
REMARK  162  A    between atoms: _390  and  _391
REMARK  163  A    between atoms: _390  and  _393
REMARK  164  A    between atoms: _393  and  _394
REMARK  165  A    between atoms: _399  and  _400
REMARK  166  A    between atoms: _402  and  _404
REMARK  167  A    between atoms: _404  and  _405
REMARK  168  A    between atoms: _404  and  _407
REMARK  169  A    between atoms: _407  and  _408
REMARK  170  A    between atoms: _411  and  _413
REMARK  171  A    between atoms: _413  and  _414
REMARK  172  A    between atoms: _417  and  _419
REMARK  173  A    between atoms: _419  and  _420
REMARK  174  A    between atoms: _419  and  _422
REMARK  175  A    between atoms: _422  and  _423
REMARK  176  A    between atoms: _426  and  _428
REMARK  177  A    between atoms: _428  and  _429
REMARK  178  A    between atoms: _428  and  _431
REMARK  179  A    between atoms: _431  and  _432
REMARK  180  A    between atoms: _436  and  _437
REMARK  181  A    between atoms: _442  and  _444
REMARK  182  A    between atoms: _444  and  _445
REMARK  183  A    between atoms: _444  and  _447
REMARK  184  A    between atoms: _447  and  _448
REMARK  185  A    between atoms: _448  and  _449
REMARK  186  A    between atoms: _452  and  _454
REMARK  187  A    between atoms: _454  and  _455
REMARK  188  A    between atoms: _454  and  _457
REMARK  189  A    between atoms: _457  and  _458
REMARK  190  A    between atoms: _461  and  _463
REMARK  191  A    between atoms: _463  and  _464
REMARK  192  A    between atoms: _463  and  _466
REMARK  193  A    between atoms: _466  and  _467
REMARK  194  A    between atoms: _472  and  _474
REMARK  195  A    between atoms: _474  and  _475
REMARK  196  A    between atoms: _474  and  _477
REMARK  197  A    between atoms: _477  and  _478
REMARK  198  A    between atoms: _478  and  _479
REMARK  199  A    between atoms: _479  and  _480
REMARK  200  A    between atoms: _480  and  _481
REMARK  201  A    between atoms: _485  and  _487
REMARK  202  A    between atoms: _487  and  _488
REMARK  203  A    between atoms: _487  and  _490
REMARK  204  A    between atoms: _490  and  _491
REMARK                            x       y       z     vdW  Elec       q    Type
REMARK                         _______ _______ _______ _____ _____    ______ ____
ROOT
ATOM      1  O   HOH     1       6.459   5.725  10.454  0.00  0.00    +0.000 OA
ENDROOT
TORSDOF 0
