REMARK  Name = ../refined-set-2016/1mrn/1mrn_pocket.pdb
REMARK  283 active torsions:
REMARK  status: ('A' for Active; 'I' for Inactive)
REMARK    1  A    between atoms: _1  and  _3
REMARK    2  A    between atoms: _3  and  _4
REMARK    3  A    between atoms: _3  and  _6
REMARK    4  A    between atoms: _6  and  _7
REMARK    5  A    between atoms: _7  and  _8
REMARK    6  A    between atoms: _11  and  _13
REMARK    7  A    between atoms: _13  and  _14
REMARK    8  A    between atoms: _16  and  _18
REMARK    9  A    between atoms: _18  and  _19
REMARK   10  A    between atoms: _18  and  _21
REMARK   11  A    between atoms: _24  and  _26
REMARK   12  A    between atoms: _26  and  _27
REMARK   13  A    between atoms: _26  and  _29
REMARK   14  A    between atoms: _29  and  _30
REMARK   15  A    between atoms: _30  and  _31
REMARK   16  A    between atoms: _31  and  MG_715
REMARK   17  A    between atoms: _33  and  _35
REMARK   18  A    between atoms: _35  and  _36
REMARK   19  A    between atoms: _38  and  _40
REMARK   20  A    between atoms: _40  and  _41
REMARK   21  A    between atoms: _44  and  _46
REMARK   22  A    between atoms: _46  and  _47
REMARK   23  A    between atoms: _46  and  _49
REMARK   24  A    between atoms: _49  and  _50
REMARK   25  A    between atoms: _50  and  _51
REMARK   26  A    between atoms: _51  and  _52
REMARK   27  A    between atoms: _52  and  _53
REMARK   28  A    between atoms: _57  and  _59
REMARK   29  A    between atoms: _59  and  _60
REMARK   30  A    between atoms: _59  and  _62
REMARK   31  A    between atoms: _62  and  _63
REMARK   32  A    between atoms: _63  and  _64
REMARK   33  A    between atoms: _64  and  _65
REMARK   34  A    between atoms: _74  and  _76
REMARK   35  A    between atoms: _76  and  _77
REMARK   36  A    between atoms: _80  and  _82
REMARK   37  A    between atoms: _82  and  _83
REMARK   38  A    between atoms: _82  and  _85
REMARK   39  A    between atoms: _85  and  _86
REMARK   40  A    between atoms: _93  and  _94
REMARK   41  A    between atoms: _99  and  _101
REMARK   42  A    between atoms: _101  and  _102
REMARK   43  A    between atoms: _101  and  _104
REMARK   44  A    between atoms: _104  and  _105
REMARK   45  A    between atoms: _105  and  _106
REMARK   46  A    between atoms: _106  and  _107
REMARK   47  A    between atoms: _116  and  _118
REMARK   48  A    between atoms: _118  and  _119
REMARK   49  A    between atoms: _118  and  _121
REMARK   50  A    between atoms: _121  and  _122
REMARK   51  A    between atoms: _127  and  _128
REMARK   52  A    between atoms: _130  and  _132
REMARK   53  A    between atoms: _132  and  _133
REMARK   54  A    between atoms: _135  and  _137
REMARK   55  A    between atoms: _137  and  _138
REMARK   56  A    between atoms: _137  and  _140
REMARK   57  A    between atoms: _140  and  _141
REMARK   58  A    between atoms: _143  and  _145
REMARK   59  A    between atoms: _145  and  _146
REMARK   60  A    between atoms: _145  and  _148
REMARK   61  A    between atoms: _151  and  _153
REMARK   62  A    between atoms: _153  and  _154
REMARK   63  A    between atoms: _157  and  _159
REMARK   64  A    between atoms: _159  and  _160
REMARK   65  A    between atoms: _159  and  _162
REMARK   66  A    between atoms: _162  and  _163
REMARK   67  A    between atoms: _166  and  _168
REMARK   68  A    between atoms: _168  and  _169
REMARK   69  A    between atoms: _168  and  _171
REMARK   70  A    between atoms: _171  and  _172
REMARK   71  A    between atoms: _175  and  _177
REMARK   72  A    between atoms: _177  and  _178
REMARK   73  A    between atoms: _181  and  _183
REMARK   74  A    between atoms: _183  and  _184
REMARK   75  A    between atoms: _187  and  _189
REMARK   76  A    between atoms: _189  and  _190
REMARK   77  A    between atoms: _189  and  _192
REMARK   78  A    between atoms: _192  and  _193
REMARK   79  A    between atoms: _193  and  _194
REMARK   80  A    between atoms: _197  and  _199
REMARK   81  A    between atoms: _199  and  _200
REMARK   82  A    between atoms: _203  and  _205
REMARK   83  A    between atoms: _205  and  _206
REMARK   84  A    between atoms: _205  and  _208
REMARK   85  A    between atoms: _208  and  _209
REMARK   86  A    between atoms: _212  and  _214
REMARK   87  A    between atoms: _214  and  _215
REMARK   88  A    between atoms: _214  and  _217
REMARK   89  A    between atoms: _217  and  _218
REMARK   90  A    between atoms: _223  and  _225
REMARK   91  A    between atoms: _225  and  _226
REMARK   92  A    between atoms: _228  and  _230
REMARK   93  A    between atoms: _230  and  _231
REMARK   94  A    between atoms: _230  and  _233
REMARK   95  A    between atoms: _233  and  _234
REMARK   96  A    between atoms: _234  and  _235
REMARK   97  A    between atoms: _238  and  _240
REMARK   98  A    between atoms: _240  and  _241
REMARK   99  A    between atoms: _240  and  _243
REMARK  100  A    between atoms: _243  and  _244
REMARK  101  A    between atoms: _249  and  _251
REMARK  102  A    between atoms: _251  and  _252
REMARK  103  A    between atoms: _251  and  _254
REMARK  104  A    between atoms: _257  and  _259
REMARK  105  A    between atoms: _259  and  _260
REMARK  106  A    between atoms: _259  and  _262
REMARK  107  A    between atoms: _262  and  _263
REMARK  108  A    between atoms: _263  and  _264
REMARK  109  A    between atoms: _266  and  _268
REMARK  110  A    between atoms: _268  and  _269
REMARK  111  A    between atoms: _272  and  _274
REMARK  112  A    between atoms: _274  and  _275
REMARK  113  A    between atoms: _274  and  _277
REMARK  114  A    between atoms: _277  and  _278
REMARK  115  A    between atoms: _281  and  _283
REMARK  116  A    between atoms: _283  and  _284
REMARK  117  A    between atoms: _283  and  _286
REMARK  118  A    between atoms: _286  and  _287
REMARK  119  A    between atoms: _290  and  _292
REMARK  120  A    between atoms: _292  and  _293
REMARK  121  A    between atoms: _292  and  _295
REMARK  122  A    between atoms: _295  and  _296
REMARK  123  A    between atoms: _302  and  _304
REMARK  124  A    between atoms: _304  and  _305
REMARK  125  A    between atoms: _308  and  _310
REMARK  126  A    between atoms: _310  and  _311
REMARK  127  A    between atoms: _310  and  _313
REMARK  128  A    between atoms: _313  and  _314
REMARK  129  A    between atoms: _317  and  _319
REMARK  130  A    between atoms: _319  and  _320
REMARK  131  A    between atoms: _319  and  _322
REMARK  132  A    between atoms: _322  and  _323
REMARK  133  A    between atoms: _323  and  _324
REMARK  134  A    between atoms: _324  and  _325
REMARK  135  A    between atoms: _334  and  _336
REMARK  136  A    between atoms: _336  and  _337
REMARK  137  A    between atoms: _336  and  _339
REMARK  138  A    between atoms: _339  and  _340
REMARK  139  A    between atoms: _343  and  _345
REMARK  140  A    between atoms: _345  and  _346
REMARK  141  A    between atoms: _345  and  _348
REMARK  142  A    between atoms: _348  and  _349
REMARK  143  A    between atoms: _349  and  _350
REMARK  144  A    between atoms: _350  and  _351
REMARK  145  A    between atoms: _360  and  _362
REMARK  146  A    between atoms: _362  and  _363
REMARK  147  A    between atoms: _362  and  _365
REMARK  148  A    between atoms: _365  and  _366
REMARK  149  A    between atoms: _371  and  _372
REMARK  150  A    between atoms: _374  and  _376
REMARK  151  A    between atoms: _376  and  _377
REMARK  152  A    between atoms: _376  and  _379
REMARK  153  A    between atoms: _382  and  _384
REMARK  154  A    between atoms: _384  and  _385
REMARK  155  A    between atoms: _388  and  _390
REMARK  156  A    between atoms: _390  and  _391
REMARK  157  A    between atoms: _390  and  _393
REMARK  158  A    between atoms: _393  and  _394
REMARK  159  A    between atoms: _396  and  _398
REMARK  160  A    between atoms: _398  and  _399
REMARK  161  A    between atoms: _398  and  _401
REMARK  162  A    between atoms: _401  and  _402
REMARK  163  A    between atoms: _407  and  _409
REMARK  164  A    between atoms: _409  and  _410
REMARK  165  A    between atoms: _413  and  _415
REMARK  166  A    between atoms: _415  and  _416
REMARK  167  A    between atoms: _419  and  _421
REMARK  168  A    between atoms: _421  and  _422
REMARK  169  A    between atoms: _421  and  _424
REMARK  170  A    between atoms: _424  and  _425
REMARK  171  A    between atoms: _430  and  _431
REMARK  172  A    between atoms: _433  and  _435
REMARK  173  A    between atoms: _435  and  _436
REMARK  174  A    between atoms: _435  and  _438
REMARK  175  A    between atoms: _438  and  _439
REMARK  176  A    between atoms: _441  and  _443
REMARK  177  A    between atoms: _443  and  _444
REMARK  178  A    between atoms: _447  and  _449
REMARK  179  A    between atoms: _449  and  _450
REMARK  180  A    between atoms: _449  and  _452
REMARK  181  A    between atoms: _452  and  _453
REMARK  182  A    between atoms: _453  and  _454
REMARK  183  A    between atoms: _454  and  _455
REMARK  184  A    between atoms: _464  and  _466
REMARK  185  A    between atoms: _466  and  _467
REMARK  186  A    between atoms: _466  and  _469
REMARK  187  A    between atoms: _472  and  _474
REMARK  188  A    between atoms: _474  and  _475
REMARK  189  A    between atoms: _474  and  _477
REMARK  190  A    between atoms: _477  and  _478
REMARK  191  A    between atoms: _478  and  _479
REMARK  192  A    between atoms: _482  and  _484
REMARK  193  A    between atoms: _484  and  _485
REMARK  194  A    between atoms: _484  and  _487
REMARK  195  A    between atoms: _487  and  _488
REMARK  196  A    between atoms: _490  and  _492
REMARK  197  A    between atoms: _492  and  _493
REMARK  198  A    between atoms: _492  and  _495
REMARK  199  A    between atoms: _495  and  _496
REMARK  200  A    between atoms: _496  and  _497
REMARK  201  A    between atoms: _497  and  _498
REMARK  202  A    between atoms: _507  and  _509
REMARK  203  A    between atoms: _509  and  _510
REMARK  204  A    between atoms: _513  and  _515
REMARK  205  A    between atoms: _515  and  _516
REMARK  206  A    between atoms: _515  and  _518
REMARK  207  A    between atoms: _518  and  _519
REMARK  208  A    between atoms: _519  and  _520
REMARK  209  A    between atoms: _520  and  _521
REMARK  210  A    between atoms: _530  and  _532
REMARK  211  A    between atoms: _532  and  _533
REMARK  212  A    between atoms: _532  and  _535
REMARK  213  A    between atoms: _535  and  _536
REMARK  214  A    between atoms: _539  and  _541
REMARK  215  A    between atoms: _541  and  _542
REMARK  216  A    between atoms: _544  and  _546
REMARK  217  A    between atoms: _546  and  _547
REMARK  218  A    between atoms: _546  and  _549
REMARK  219  A    between atoms: _549  and  _550
REMARK  220  A    between atoms: _550  and  _551
REMARK  221  A    between atoms: _551  and  _552
REMARK  222  A    between atoms: _561  and  _563
REMARK  223  A    between atoms: _563  and  _564
REMARK  224  A    between atoms: _567  and  _569
REMARK  225  A    between atoms: _569  and  _570
REMARK  226  A    between atoms: _569  and  _572
REMARK  227  A    between atoms: _572  and  _573
REMARK  228  A    between atoms: _573  and  _574
REMARK  229  A    between atoms: _574  and  _575
REMARK  230  A    between atoms: _584  and  _586
REMARK  231  A    between atoms: _586  and  _587
REMARK  232  A    between atoms: _586  and  _589
REMARK  233  A    between atoms: _589  and  _590
REMARK  234  A    between atoms: _593  and  _595
REMARK  235  A    between atoms: _595  and  _596
REMARK  236  A    between atoms: _595  and  _598
REMARK  237  A    between atoms: _598  and  _599
REMARK  238  A    between atoms: _604  and  _606
REMARK  239  A    between atoms: _606  and  _607
REMARK  240  A    between atoms: _606  and  _609
REMARK  241  A    between atoms: _609  and  _610
REMARK  242  A    between atoms: _615  and  _616
REMARK  243  A    between atoms: _618  and  _620
REMARK  244  A    between atoms: _620  and  _621
REMARK  245  A    between atoms: _620  and  _623
REMARK  246  A    between atoms: _623  and  _624
REMARK  247  A    between atoms: _624  and  _625
REMARK  248  A    between atoms: _625  and  _627
REMARK  249  A    between atoms: _627  and  MG_715
REMARK  250  A    between atoms: _628  and  _630
REMARK  251  A    between atoms: _630  and  _631
REMARK  252  A    between atoms: _630  and  _633
REMARK  253  A    between atoms: _633  and  _634
REMARK  254  A    between atoms: _634  and  _635
REMARK  255  A    between atoms: _635  and  _636
REMARK  256  A    between atoms: _645  and  _647
REMARK  257  A    between atoms: _647  and  _648
REMARK  258  A    between atoms: _647  and  _650
REMARK  259  A    between atoms: _650  and  _651
REMARK  260  A    between atoms: _654  and  _656
REMARK  261  A    between atoms: _656  and  _657
REMARK  262  A    between atoms: _656  and  _659
REMARK  263  A    between atoms: _659  and  _660
REMARK  264  A    between atoms: _663  and  _665
REMARK  265  A    between atoms: _665  and  _666
REMARK  266  A    between atoms: _665  and  _668
REMARK  267  A    between atoms: _668  and  _669
REMARK  268  A    between atoms: _669  and  _670
REMARK  269  A    between atoms: _675  and  _677
REMARK  270  A    between atoms: _677  and  _678
REMARK  271  A    between atoms: _677  and  _680
REMARK  272  A    between atoms: _680  and  _681
REMARK  273  A    between atoms: _684  and  _686
REMARK  274  A    between atoms: _686  and  _687
REMARK  275  A    between atoms: _686  and  _689
REMARK  276  A    between atoms: _689  and  _690
REMARK  277  A    between atoms: _695  and  _696
REMARK  278  A    between atoms: _698  and  _700
REMARK  279  A    between atoms: _700  and  _701
REMARK  280  A    between atoms: _700  and  _703
REMARK  281  A    between atoms: _703  and  _704
REMARK  282  A    between atoms: _704  and  _705
REMARK  283  A    between atoms: _705  and  _706
REMARK                            x       y       z     vdW  Elec       q    Type
REMARK                         _______ _______ _______ _____ _____    ______ ____
ROOT
ATOM      1  N   UNK A   4      17.123  15.975   7.363  0.00  0.00    +0.000 N 
ATOM      2  C   TYR A   7      16.465  14.925   7.846  0.00  0.00    +0.000 C 
ATOM      3  O   TYR A   7      15.705  14.999   8.809  0.00  0.00    +0.000 OA
ATOM      4  H   UNK A   4      17.745  15.844   6.540  0.00  0.00    +0.000 HD
ENDROOT
BRANCH   1   5
ATOM      5  C   UNK A   4      17.000  17.303   7.950  0.00  0.00    +0.000 C 
BRANCH   5   6
ATOM      6  C   UNK A   4      15.619  17.930   7.697  0.00  0.00    +0.000 C 
ATOM      7  O   UNK A   4      15.171  18.779   8.454  0.00  0.00    +0.000 OA
ATOM      8  N   ARG A   9      14.937  17.503   6.641  0.00  0.00    +0.000 N 
ATOM      9  H   ARG A   9      15.348  16.774   6.024  0.00  0.00    +0.000 HD
BRANCH   8  10
ATOM     10  CA  ARG A   9      13.618  18.045   6.337  0.00  0.00    +0.000 C 
BRANCH  10  11
ATOM     11  C   ARG A   9      12.566  17.347   7.181  0.00  0.00    +0.000 C 
ATOM     12  N   ASP A  10      12.906  16.152   7.644  0.00  0.00    +0.000 N 
ATOM     13  H   ASP A  10      13.847  15.773   7.415  0.00  0.00    +0.000 HD
ATOM     14  O   ARG A   9      11.474  17.879   7.409  0.00  0.00    +0.000 OA
BRANCH  12  15
ATOM     15  CA  ASP A  10      12.010  15.356   8.458  0.00  0.00    +0.000 C 
BRANCH  15  16
ATOM     16  C   ASP A  10      12.189  15.702   9.943  0.00  0.00    +0.000 C 
ATOM     17  O   ASP A  10      13.035  15.127  10.627  0.00  0.00    +0.000 OA
ENDBRANCH  15  16
BRANCH  15  18
ATOM     18  CB  ASP A  10      12.306  13.877   8.219  0.00  0.00    +0.000 C 
BRANCH  18  19
ATOM     19  CG  ASP A  10      11.286  12.967   8.859  0.00  0.00    +0.000 C 
ATOM     20  OD2 ASP A  10      10.852  13.252   9.994  0.00  0.00    +0.000 OA
ATOM     21  OD1 ASP A  10      10.928  11.953   8.226  0.00  0.00    +0.000 OA
ENDBRANCH  18  19
ENDBRANCH  15  18
ENDBRANCH  12  15
ENDBRANCH  10  11
BRANCH  10  22
ATOM     22  CB  ARG A   9      13.290  17.850   4.864  0.00  0.00    +0.000 C 
BRANCH  22  23
ATOM     23  CG  ARG A   9      14.228  18.557   3.938  0.00  0.00    +0.000 C 
BRANCH  23  24
ATOM     24  CD  ARG A   9      14.038  18.078   2.498  0.00  0.00    +0.000 C 
BRANCH  24  25
ATOM     25  NE  ARG A   9      14.987  18.750   1.624  0.00  0.00    +0.330 N 
ATOM     26  CZ  ARG A   9      15.083  20.074   1.520  0.00  0.00    +0.000 C 
ATOM     27  NH2 ARG A   9      14.271  20.859   2.233  0.00  0.00    +0.330 N 
ATOM     28 HH21 ARG A   9      13.565  20.436   2.869  0.00  0.00    +0.000 HD
ATOM     29 HH22 ARG A   9      14.345  21.893   2.153  0.00  0.00    +0.000 HD
ATOM     30  NH1 ARG A   9      16.012  20.610   0.734  0.00  0.00    +0.330 N 
ATOM     31 HH11 ARG A   9      16.089  21.644   0.651  0.00  0.00    +0.000 HD
ATOM     32 HH12 ARG A   9      16.661  19.995   0.203  0.00  0.00    +0.000 HD
ATOM     33  HE  ARG A   9      15.625  18.164   1.049  0.00  0.00    +0.000 HD
ENDBRANCH  24  25
ENDBRANCH  23  24
ENDBRANCH  22  23
ENDBRANCH  10  22
ENDBRANCH   8  10
ENDBRANCH   5   6
BRANCH   5  34
ATOM     34  C   UNK A   4      18.126  18.193   7.403  0.00  0.00    +0.000 C 
BRANCH  34  35
ATOM     35  C   UNK A   4      19.500  17.572   7.617  0.00  0.00    +0.000 C 
BRANCH  35  36
ATOM     36  C   UNK A   4      20.600  18.198   6.792  0.00  0.00    +0.000 C 
ATOM     37  O   UNK A   4      20.375  18.508   5.609  0.00  0.00    +0.000 OA
BRANCH  36  38
ATOM     38  O   UNK A   4      21.713  18.357   7.317  0.00  0.00    +0.000 OA
BRANCH  38  39
ATOM     39 MG   UNK A   4      23.047  16.656   8.164  0.00  0.00    +0.000 Mg
BRANCH  39  40
ATOM     40  O   UNK A   4      22.440  16.273  10.001  0.00  0.00    +0.000 OA
BRANCH  40  41
ATOM     41  C   UNK A   4      21.305  16.278  10.546  0.00  0.00    +0.000 C 
ATOM     42  O   UNK A   4      20.565  15.265  10.579  0.00  0.00    +0.000 OA
BRANCH  41  43
ATOM     43  C   UNK A   4      20.809  17.569  11.217  0.00  0.00    +0.000 C 
BRANCH  43  44
ATOM     44  C   UNK A   4      21.513  17.838  12.546  0.00  0.00    +0.000 C 
BRANCH  44  45
ATOM     45  C   UNK A   4      21.306  19.269  13.019  0.00  0.00    +0.000 C 
ATOM     46  O   UNK A   4      20.284  19.593  13.618  0.00  0.00    +0.000 OA
ATOM     47  N   ASP A   5      22.300  20.116  12.773  0.00  0.00    +0.000 N 
ATOM     48  H   ASP A   5      23.155  19.777  12.288  0.00  0.00    +0.000 HD
BRANCH  47  49
ATOM     49  CA  ASP A   5      22.206  21.507  13.173  0.00  0.00    +0.000 C 
BRANCH  49  50
ATOM     50  C   ASP A   5      22.331  21.674  14.667  0.00  0.00    +0.000 C 
ATOM     51  N   ASN A   6      22.986  20.710  15.307  0.00  0.00    +0.000 N 
ATOM     52  H   ASN A   6      23.371  19.912  14.762  0.00  0.00    +0.000 HD
ATOM     53  O   ASP A   5      21.844  22.647  15.236  0.00  0.00    +0.000 OA
BRANCH  51  54
ATOM     54  CA  ASN A   6      23.179  20.741  16.755  0.00  0.00    +0.000 C 
ATOM     55  CB  ASN A   6      23.315  19.319  17.293  0.00  0.00    +0.000 C 
BRANCH  54  56
ATOM     56  C   ASN A   6      24.405  21.574  17.148  0.00  0.00    +0.000 C 
ATOM     57  O   ASN A   6      24.464  22.118  18.243  0.00  0.00    +0.000 OA
ENDBRANCH  54  56
ENDBRANCH  51  54
ENDBRANCH  49  50
ENDBRANCH  47  49
ENDBRANCH  44  45
BRANCH  44  60
ATOM     58  C   ALA A   3      21.732  16.667  14.646  0.00  0.00    +0.000 C 
ATOM     59  O   ALA A   3      22.778  17.253  14.919  0.00  0.00    +0.000 OA
ATOM     60  N   UNK A   4      21.047  16.886  13.529  0.00  0.00    +0.000 N 
ATOM     61  H   UNK A   4      20.163  16.365  13.359  0.00  0.00    +0.000 HD
BRANCH  58  62
ATOM     62  CA  ALA A   3      21.142  15.638  15.590  0.00  0.00    +0.000 C 
BRANCH  62  64
ATOM     63  C   ARG A   2      23.275  14.932  16.585  0.00  0.00    +0.000 C 
ATOM     64  N   ALA A   3      22.024  15.373  16.721  0.00  0.00    +0.000 N 
ATOM     65  H   ALA A   3      21.659  15.536  17.681  0.00  0.00    +0.000 HD
ATOM     66  O   ARG A   2      23.809  14.716  15.490  0.00  0.00    +0.000 OA
BRANCH  63  67
ATOM     67  CA  ARG A   2      24.030  14.717  17.883  0.00  0.00    +0.000 C 
BRANCH  67  70
ATOM     68  C   GLY A   1      26.234  14.004  18.528  0.00  0.00    +0.000 C 
ATOM     69  O   GLY A   1      26.327  14.923  19.334  0.00  0.00    +0.000 OA
ATOM     70  N   ARG A   2      25.158  13.814  17.774  0.00  0.00    +0.000 N 
ATOM     71  H   ARG A   2      25.125  13.018  17.106  0.00  0.00    +0.000 HD
BRANCH  68  72
ATOM     72  CA  GLY A   1      27.364  13.002  18.354  0.00  0.00    +0.000 C 
BRANCH  72  73
ATOM     73  N   GLY A   1      28.625  13.449  18.934  0.00  0.00    +0.000 NA
ATOM     74  H   GLY A   1      28.666  13.698  19.943  0.00  0.00    +0.000 HD
ENDBRANCH  72  73
BRANCH  72  75
ATOM     75  CB  GLY A   1      26.954  11.668  18.990  0.00  0.00    +0.000 C 
BRANCH  75  76
ATOM     76  CG  GLY A   1      27.892  10.496  18.700  0.00  0.00    +0.000 C 
BRANCH  76  77
ATOM     77  CD  GLY A   1      27.896  10.106  17.245  0.00  0.00    +0.000 C 
ATOM     78  OE2 GLY A   1      28.839   9.413  16.822  0.00  0.00    +0.000 OA
ATOM     79  OE1 GLY A   1      26.944  10.480  16.518  0.00  0.00    +0.000 OA
ENDBRANCH  76  77
ENDBRANCH  75  76
ENDBRANCH  72  75
ENDBRANCH  68  72
ENDBRANCH  67  70
ENDBRANCH  63  67
ENDBRANCH  62  64
BRANCH  62  80
ATOM     80  CB  ALA A   3      19.754  16.145  16.061  0.00  0.00    +0.000 C 
ATOM     81  CG2 ALA A   3      19.160  15.156  17.039  0.00  0.00    +0.000 C 
ATOM     82  CG1 ALA A   3      19.873  17.539  16.677  0.00  0.00    +0.000 C 
ENDBRANCH  62  80
ENDBRANCH  58  62
ENDBRANCH  44  60
ENDBRANCH  43  44
ENDBRANCH  41  43
ENDBRANCH  40  41
ENDBRANCH  39  40
ENDBRANCH  38  39
ENDBRANCH  36  38
ENDBRANCH  35  36
ENDBRANCH  34  35
ENDBRANCH   5  34
ENDBRANCH   1   5
BRANCH   2  83
ATOM     83  CA  TYR A   7      16.695  13.588   7.136  0.00  0.00    +0.000 C 
BRANCH  83  84
ATOM     84  N   TYR A   7      16.715  13.727   5.688  0.00  0.00    +0.000 N 
ATOM     85  H   TYR A   7      17.622  13.698   5.179  0.00  0.00    +0.000 HD
ATOM     86  C   ASN A   6      15.587  13.890   5.013  0.00  0.00    +0.000 C 
ATOM     87  O   ASN A   6      14.492  13.936   5.556  0.00  0.00    +0.000 OA
BRANCH  86  88
ATOM     88  CA  ASN A   6      15.693  14.017   3.515  0.00  0.00    +0.000 C 
BRANCH  88  89
ATOM     89  N   ASN A   6      16.869  14.747   3.056  0.00  0.00    +0.000 N 
ATOM     90  C   ASP A   5      17.187  15.951   3.533  0.00  0.00    +0.000 C 
ATOM     91  O   ASP A   5      16.520  16.551   4.397  0.00  0.00    +0.000 OA
ATOM     92  H   ASN A   6      17.479  14.315   2.333  0.00  0.00    +0.000 HD
BRANCH  90  93
ATOM     93  CA  ASP A   5      18.427  16.593   2.947  0.00  0.00    +0.000 C 
BRANCH  93  94
ATOM     94  N   ASP A   5      18.674  17.838   3.648  0.00  0.00    +0.000 N 
ATOM     95  H   ASP A   5      19.027  17.824   4.626  0.00  0.00    +0.000 HD
ATOM     96  C   UNK A   4      18.449  18.995   3.039  0.00  0.00    +0.000 C 
ATOM     97  O   UNK A   4      18.057  19.055   1.877  0.00  0.00    +0.000 OA
BRANCH  96  98
ATOM     98  C   UNK A   4      18.723  20.279   3.831  0.00  0.00    +0.000 C 
BRANCH  98  99
ATOM     99  N   UNK A   4      18.947  21.316   2.840  0.00  0.00    +0.000 N 
ATOM    100  H   UNK A   4      18.278  22.109   2.767  0.00  0.00    +0.000 HD
ATOM    101  C   ALA A   3      19.994  21.265   2.027  0.00  0.00    +0.000 C 
ATOM    102  O   ALA A   3      20.860  20.391   2.087  0.00  0.00    +0.000 OA
BRANCH 101 103
ATOM    103  CA  ALA A   3      20.094  22.366   1.003  0.00  0.00    +0.000 C 
ATOM    104  CB  ALA A   3      19.484  21.886  -0.303  0.00  0.00    +0.000 C 
BRANCH 103 105
ATOM    105  N   ALA A   3      21.485  22.723   0.797  0.00  0.00    +0.000 N 
ATOM    106  H   ALA A   3      22.215  22.324   1.421  0.00  0.00    +0.000 HD
ATOM    107  C   ARG A   2      21.837  23.552  -0.177  0.00  0.00    +0.000 C 
ATOM    108  O   ARG A   2      21.017  24.069  -0.938  0.00  0.00    +0.000 OA
BRANCH 107 109
ATOM    109  CA  ARG A   2      23.331  23.850  -0.315  0.00  0.00    +0.000 C 
BRANCH 109 110
ATOM    110  N   ARG A   2      23.564  24.599  -1.540  0.00  0.00    +0.000 N 
ATOM    111  C   GLY A   1      24.793  24.799  -2.000  0.00  0.00    +0.000 C 
ATOM    112  O   GLY A   1      25.804  24.343  -1.452  0.00  0.00    +0.000 OA
ATOM    113  H   ARG A   2      22.753  24.985  -2.065  0.00  0.00    +0.000 HD
BRANCH 111 114
ATOM    114  CA  GLY A   1      24.902  25.643  -3.252  0.00  0.00    +0.000 C 
BRANCH 114 115
ATOM    115  N   GLY A   1      24.759  27.015  -2.803  0.00  0.00    +0.000 NA
ATOM    116  H   GLY A   1      25.583  27.535  -2.440  0.00  0.00    +0.000 HD
ENDBRANCH 114 115
ENDBRANCH 111 114
ENDBRANCH 109 110
BRANCH 109 117
ATOM    117  CB  ARG A   2      23.813  24.689   0.868  0.00  0.00    +0.000 C 
BRANCH 117 118
ATOM    118  CG  ARG A   2      23.852  23.991   2.205  0.00  0.00    +0.000 C 
BRANCH 118 119
ATOM    119  CD  ARG A   2      23.764  25.044   3.296  0.00  0.00    +0.000 C 
BRANCH 119 120
ATOM    120  NE  ARG A   2      24.753  24.898   4.362  0.00  0.00    +0.330 N 
ATOM    121  HE  ARG A   2      24.403  24.753   5.331  0.00  0.00    +0.000 HD
ATOM    122  CZ  ARG A   2      26.070  24.938   4.179  0.00  0.00    +0.000 C 
ATOM    123  NH2 ARG A   2      26.886  24.828   5.224  0.00  0.00    +0.330 N 
ATOM    124 HH21 ARG A   2      26.494  24.711   6.180  0.00  0.00    +0.000 HD
ATOM    125 HH22 ARG A   2      27.916  24.859   5.085  0.00  0.00    +0.000 HD
ATOM    126  NH1 ARG A   2      26.573  25.110   2.959  0.00  0.00    +0.330 N 
ATOM    127 HH11 ARG A   2      27.603  25.141   2.821  0.00  0.00    +0.000 HD
ATOM    128 HH12 ARG A   2      25.936  25.214   2.144  0.00  0.00    +0.000 HD
ENDBRANCH 119 120
ENDBRANCH 118 119
ENDBRANCH 117 118
ENDBRANCH 109 117
ENDBRANCH 107 109
ENDBRANCH 103 105
ENDBRANCH 101 103
ENDBRANCH  98  99
BRANCH  98 129
ATOM    129  C   UNK A   4      17.511  20.622   4.694  0.00  0.00    +0.000 C 
BRANCH 129 130
ATOM    130  C   UNK A   4      17.722  21.793   5.614  0.00  0.00    +0.000 C 
BRANCH 130 131
ATOM    131  C   UNK A   4      16.454  22.087   6.375  0.00  0.00    +0.000 C 
BRANCH 131 132
ATOM    132  N   UNK A   4      15.403  22.596   5.493  0.00  0.00    +0.330 N 
ATOM    133  C   UNK A   4      14.103  22.399   5.682  0.00  0.00    +0.000 C 
ATOM    134  N   UNK A   4      13.689  21.699   6.727  0.00  0.00    +0.330 N 
ATOM    135  H   UNK A   4      14.381  21.306   7.396  0.00  0.00    +0.000 HD
ATOM    136  H   UNK A   4      12.672  21.543   6.878  0.00  0.00    +0.000 HD
ATOM    137  N   UNK A   4      13.223  22.898   4.824  0.00  0.00    +0.330 N 
ATOM    138  H   UNK A   4      12.206  22.743   4.973  0.00  0.00    +0.000 HD
ATOM    139  H   UNK A   4      13.551  23.444   4.002  0.00  0.00    +0.000 HD
ATOM    140  H   UNK A   4      15.694  23.149   4.662  0.00  0.00    +0.000 HD
ENDBRANCH 131 132
ENDBRANCH 130 131
ENDBRANCH 129 130
ENDBRANCH  98 129
ENDBRANCH  96  98
ENDBRANCH  93  94
BRANCH  93 141
ATOM    141  CB  ASP A   5      19.637  15.656   3.034  0.00  0.00    +0.000 C 
BRANCH 141 142
ATOM    142  CG  ASP A   5      20.139  15.442   4.465  0.00  0.00    +0.000 C 
ATOM    143  OD2 ASP A   5      19.345  15.024   5.334  0.00  0.00    +0.000 OA
ATOM    144  OD1 ASP A   5      21.344  15.670   4.718  0.00  0.00    +0.000 OA
ENDBRANCH 141 142
ENDBRANCH  93 141
ENDBRANCH  90  93
ENDBRANCH  88  89
BRANCH  88 145
ATOM    145  CB  ASN A   6      15.644  12.619   2.896  0.00  0.00    +0.000 C 
BRANCH 145 146
ATOM    146  CG  ASN A   6      15.308  12.654   1.417  0.00  0.00    +0.000 C 
ATOM    147  OD1 ASN A   6      14.419  13.405   0.987  0.00  0.00    +0.000 OA
ATOM    148  ND2 ASN A   6      16.008  11.833   0.625  0.00  0.00    +0.000 N 
ATOM    149 HD21 ASN A   6      16.744  11.221   1.031  0.00  0.00    +0.000 HD
ATOM    150 HD22 ASN A   6      15.816  11.807  -0.397  0.00  0.00    +0.000 HD
ENDBRANCH 145 146
ENDBRANCH  88 145
ENDBRANCH  86  88
ENDBRANCH  83  84
BRANCH  83 151
ATOM    151  CB  TYR A   7      18.008  12.970   7.621  0.00  0.00    +0.000 C 
BRANCH 151 152
ATOM    152  CG  TYR A   7      18.252  11.523   7.198  0.00  0.00    +0.000 A 
ATOM    153  CD2 TYR A   7      19.445  10.882   7.539  0.00  0.00    +0.000 A 
ATOM    154  CE2 TYR A   7      19.662   9.540   7.218  0.00  0.00    +0.000 A 
ATOM    155  CZ  TYR A   7      18.679   8.826   6.551  0.00  0.00    +0.000 A 
ATOM    156  CE1 TYR A   7      17.479   9.437   6.191  0.00  0.00    +0.000 A 
ATOM    157  CD1 TYR A   7      17.274  10.780   6.514  0.00  0.00    +0.000 A 
BRANCH 155 158
ATOM    158  OH  TYR A   7      18.911   7.509   6.267  0.00  0.00    +0.000 OA
ATOM    159  HH  TYR A   7      19.058   7.012   7.110  0.00  0.00    +0.000 HD
ENDBRANCH 155 158
ENDBRANCH 151 152
ENDBRANCH  83 151
ENDBRANCH   2  83
TORSDOF 66
REMARK  Name = ../refined-set-2016/1mrn/1mrn_pocket.pdb
REMARK  283 active torsions:
REMARK  status: ('A' for Active; 'I' for Inactive)
REMARK    1  A    between atoms: _1  and  _3
REMARK    2  A    between atoms: _3  and  _4
REMARK    3  A    between atoms: _3  and  _6
REMARK    4  A    between atoms: _6  and  _7
REMARK    5  A    between atoms: _7  and  _8
REMARK    6  A    between atoms: _11  and  _13
REMARK    7  A    between atoms: _13  and  _14
REMARK    8  A    between atoms: _16  and  _18
REMARK    9  A    between atoms: _18  and  _19
REMARK   10  A    between atoms: _18  and  _21
REMARK   11  A    between atoms: _24  and  _26
REMARK   12  A    between atoms: _26  and  _27
REMARK   13  A    between atoms: _26  and  _29
REMARK   14  A    between atoms: _29  and  _30
REMARK   15  A    between atoms: _30  and  _31
REMARK   16  A    between atoms: _31  and  MG_715
REMARK   17  A    between atoms: _33  and  _35
REMARK   18  A    between atoms: _35  and  _36
REMARK   19  A    between atoms: _38  and  _40
REMARK   20  A    between atoms: _40  and  _41
REMARK   21  A    between atoms: _44  and  _46
REMARK   22  A    between atoms: _46  and  _47
REMARK   23  A    between atoms: _46  and  _49
REMARK   24  A    between atoms: _49  and  _50
REMARK   25  A    between atoms: _50  and  _51
REMARK   26  A    between atoms: _51  and  _52
REMARK   27  A    between atoms: _52  and  _53
REMARK   28  A    between atoms: _57  and  _59
REMARK   29  A    between atoms: _59  and  _60
REMARK   30  A    between atoms: _59  and  _62
REMARK   31  A    between atoms: _62  and  _63
REMARK   32  A    between atoms: _63  and  _64
REMARK   33  A    between atoms: _64  and  _65
REMARK   34  A    between atoms: _74  and  _76
REMARK   35  A    between atoms: _76  and  _77
REMARK   36  A    between atoms: _80  and  _82
REMARK   37  A    between atoms: _82  and  _83
REMARK   38  A    between atoms: _82  and  _85
REMARK   39  A    between atoms: _85  and  _86
REMARK   40  A    between atoms: _93  and  _94
REMARK   41  A    between atoms: _99  and  _101
REMARK   42  A    between atoms: _101  and  _102
REMARK   43  A    between atoms: _101  and  _104
REMARK   44  A    between atoms: _104  and  _105
REMARK   45  A    between atoms: _105  and  _106
REMARK   46  A    between atoms: _106  and  _107
REMARK   47  A    between atoms: _116  and  _118
REMARK   48  A    between atoms: _118  and  _119
REMARK   49  A    between atoms: _118  and  _121
REMARK   50  A    between atoms: _121  and  _122
REMARK   51  A    between atoms: _127  and  _128
REMARK   52  A    between atoms: _130  and  _132
REMARK   53  A    between atoms: _132  and  _133
REMARK   54  A    between atoms: _135  and  _137
REMARK   55  A    between atoms: _137  and  _138
REMARK   56  A    between atoms: _137  and  _140
REMARK   57  A    between atoms: _140  and  _141
REMARK   58  A    between atoms: _143  and  _145
REMARK   59  A    between atoms: _145  and  _146
REMARK   60  A    between atoms: _145  and  _148
REMARK   61  A    between atoms: _151  and  _153
REMARK   62  A    between atoms: _153  and  _154
REMARK   63  A    between atoms: _157  and  _159
REMARK   64  A    between atoms: _159  and  _160
REMARK   65  A    between atoms: _159  and  _162
REMARK   66  A    between atoms: _162  and  _163
REMARK   67  A    between atoms: _166  and  _168
REMARK   68  A    between atoms: _168  and  _169
REMARK   69  A    between atoms: _168  and  _171
REMARK   70  A    between atoms: _171  and  _172
REMARK   71  A    between atoms: _175  and  _177
REMARK   72  A    between atoms: _177  and  _178
REMARK   73  A    between atoms: _181  and  _183
REMARK   74  A    between atoms: _183  and  _184
REMARK   75  A    between atoms: _187  and  _189
REMARK   76  A    between atoms: _189  and  _190
REMARK   77  A    between atoms: _189  and  _192
REMARK   78  A    between atoms: _192  and  _193
REMARK   79  A    between atoms: _193  and  _194
REMARK   80  A    between atoms: _197  and  _199
REMARK   81  A    between atoms: _199  and  _200
REMARK   82  A    between atoms: _203  and  _205
REMARK   83  A    between atoms: _205  and  _206
REMARK   84  A    between atoms: _205  and  _208
REMARK   85  A    between atoms: _208  and  _209
REMARK   86  A    between atoms: _212  and  _214
REMARK   87  A    between atoms: _214  and  _215
REMARK   88  A    between atoms: _214  and  _217
REMARK   89  A    between atoms: _217  and  _218
REMARK   90  A    between atoms: _223  and  _225
REMARK   91  A    between atoms: _225  and  _226
REMARK   92  A    between atoms: _228  and  _230
REMARK   93  A    between atoms: _230  and  _231
REMARK   94  A    between atoms: _230  and  _233
REMARK   95  A    between atoms: _233  and  _234
REMARK   96  A    between atoms: _234  and  _235
REMARK   97  A    between atoms: _238  and  _240
REMARK   98  A    between atoms: _240  and  _241
REMARK   99  A    between atoms: _240  and  _243
REMARK  100  A    between atoms: _243  and  _244
REMARK  101  A    between atoms: _249  and  _251
REMARK  102  A    between atoms: _251  and  _252
REMARK  103  A    between atoms: _251  and  _254
REMARK  104  A    between atoms: _257  and  _259
REMARK  105  A    between atoms: _259  and  _260
REMARK  106  A    between atoms: _259  and  _262
REMARK  107  A    between atoms: _262  and  _263
REMARK  108  A    between atoms: _263  and  _264
REMARK  109  A    between atoms: _266  and  _268
REMARK  110  A    between atoms: _268  and  _269
REMARK  111  A    between atoms: _272  and  _274
REMARK  112  A    between atoms: _274  and  _275
REMARK  113  A    between atoms: _274  and  _277
REMARK  114  A    between atoms: _277  and  _278
REMARK  115  A    between atoms: _281  and  _283
REMARK  116  A    between atoms: _283  and  _284
REMARK  117  A    between atoms: _283  and  _286
REMARK  118  A    between atoms: _286  and  _287
REMARK  119  A    between atoms: _290  and  _292
REMARK  120  A    between atoms: _292  and  _293
REMARK  121  A    between atoms: _292  and  _295
REMARK  122  A    between atoms: _295  and  _296
REMARK  123  A    between atoms: _302  and  _304
REMARK  124  A    between atoms: _304  and  _305
REMARK  125  A    between atoms: _308  and  _310
REMARK  126  A    between atoms: _310  and  _311
REMARK  127  A    between atoms: _310  and  _313
REMARK  128  A    between atoms: _313  and  _314
REMARK  129  A    between atoms: _317  and  _319
REMARK  130  A    between atoms: _319  and  _320
REMARK  131  A    between atoms: _319  and  _322
REMARK  132  A    between atoms: _322  and  _323
REMARK  133  A    between atoms: _323  and  _324
REMARK  134  A    between atoms: _324  and  _325
REMARK  135  A    between atoms: _334  and  _336
REMARK  136  A    between atoms: _336  and  _337
REMARK  137  A    between atoms: _336  and  _339
REMARK  138  A    between atoms: _339  and  _340
REMARK  139  A    between atoms: _343  and  _345
REMARK  140  A    between atoms: _345  and  _346
REMARK  141  A    between atoms: _345  and  _348
REMARK  142  A    between atoms: _348  and  _349
REMARK  143  A    between atoms: _349  and  _350
REMARK  144  A    between atoms: _350  and  _351
REMARK  145  A    between atoms: _360  and  _362
REMARK  146  A    between atoms: _362  and  _363
REMARK  147  A    between atoms: _362  and  _365
REMARK  148  A    between atoms: _365  and  _366
REMARK  149  A    between atoms: _371  and  _372
REMARK  150  A    between atoms: _374  and  _376
REMARK  151  A    between atoms: _376  and  _377
REMARK  152  A    between atoms: _376  and  _379
REMARK  153  A    between atoms: _382  and  _384
REMARK  154  A    between atoms: _384  and  _385
REMARK  155  A    between atoms: _388  and  _390
REMARK  156  A    between atoms: _390  and  _391
REMARK  157  A    between atoms: _390  and  _393
REMARK  158  A    between atoms: _393  and  _394
REMARK  159  A    between atoms: _396  and  _398
REMARK  160  A    between atoms: _398  and  _399
REMARK  161  A    between atoms: _398  and  _401
REMARK  162  A    between atoms: _401  and  _402
REMARK  163  A    between atoms: _407  and  _409
REMARK  164  A    between atoms: _409  and  _410
REMARK  165  A    between atoms: _413  and  _415
REMARK  166  A    between atoms: _415  and  _416
REMARK  167  A    between atoms: _419  and  _421
REMARK  168  A    between atoms: _421  and  _422
REMARK  169  A    between atoms: _421  and  _424
REMARK  170  A    between atoms: _424  and  _425
REMARK  171  A    between atoms: _430  and  _431
REMARK  172  A    between atoms: _433  and  _435
REMARK  173  A    between atoms: _435  and  _436
REMARK  174  A    between atoms: _435  and  _438
REMARK  175  A    between atoms: _438  and  _439
REMARK  176  A    between atoms: _441  and  _443
REMARK  177  A    between atoms: _443  and  _444
REMARK  178  A    between atoms: _447  and  _449
REMARK  179  A    between atoms: _449  and  _450
REMARK  180  A    between atoms: _449  and  _452
REMARK  181  A    between atoms: _452  and  _453
REMARK  182  A    between atoms: _453  and  _454
REMARK  183  A    between atoms: _454  and  _455
REMARK  184  A    between atoms: _464  and  _466
REMARK  185  A    between atoms: _466  and  _467
REMARK  186  A    between atoms: _466  and  _469
REMARK  187  A    between atoms: _472  and  _474
REMARK  188  A    between atoms: _474  and  _475
REMARK  189  A    between atoms: _474  and  _477
REMARK  190  A    between atoms: _477  and  _478
REMARK  191  A    between atoms: _478  and  _479
REMARK  192  A    between atoms: _482  and  _484
REMARK  193  A    between atoms: _484  and  _485
REMARK  194  A    between atoms: _484  and  _487
REMARK  195  A    between atoms: _487  and  _488
REMARK  196  A    between atoms: _490  and  _492
REMARK  197  A    between atoms: _492  and  _493
REMARK  198  A    between atoms: _492  and  _495
REMARK  199  A    between atoms: _495  and  _496
REMARK  200  A    between atoms: _496  and  _497
REMARK  201  A    between atoms: _497  and  _498
REMARK  202  A    between atoms: _507  and  _509
REMARK  203  A    between atoms: _509  and  _510
REMARK  204  A    between atoms: _513  and  _515
REMARK  205  A    between atoms: _515  and  _516
REMARK  206  A    between atoms: _515  and  _518
REMARK  207  A    between atoms: _518  and  _519
REMARK  208  A    between atoms: _519  and  _520
REMARK  209  A    between atoms: _520  and  _521
REMARK  210  A    between atoms: _530  and  _532
REMARK  211  A    between atoms: _532  and  _533
REMARK  212  A    between atoms: _532  and  _535
REMARK  213  A    between atoms: _535  and  _536
REMARK  214  A    between atoms: _539  and  _541
REMARK  215  A    between atoms: _541  and  _542
REMARK  216  A    between atoms: _544  and  _546
REMARK  217  A    between atoms: _546  and  _547
REMARK  218  A    between atoms: _546  and  _549
REMARK  219  A    between atoms: _549  and  _550
REMARK  220  A    between atoms: _550  and  _551
REMARK  221  A    between atoms: _551  and  _552
REMARK  222  A    between atoms: _561  and  _563
REMARK  223  A    between atoms: _563  and  _564
REMARK  224  A    between atoms: _567  and  _569
REMARK  225  A    between atoms: _569  and  _570
REMARK  226  A    between atoms: _569  and  _572
REMARK  227  A    between atoms: _572  and  _573
REMARK  228  A    between atoms: _573  and  _574
REMARK  229  A    between atoms: _574  and  _575
REMARK  230  A    between atoms: _584  and  _586
REMARK  231  A    between atoms: _586  and  _587
REMARK  232  A    between atoms: _586  and  _589
REMARK  233  A    between atoms: _589  and  _590
REMARK  234  A    between atoms: _593  and  _595
REMARK  235  A    between atoms: _595  and  _596
REMARK  236  A    between atoms: _595  and  _598
REMARK  237  A    between atoms: _598  and  _599
REMARK  238  A    between atoms: _604  and  _606
REMARK  239  A    between atoms: _606  and  _607
REMARK  240  A    between atoms: _606  and  _609
REMARK  241  A    between atoms: _609  and  _610
REMARK  242  A    between atoms: _615  and  _616
REMARK  243  A    between atoms: _618  and  _620
REMARK  244  A    between atoms: _620  and  _621
REMARK  245  A    between atoms: _620  and  _623
REMARK  246  A    between atoms: _623  and  _624
REMARK  247  A    between atoms: _624  and  _625
REMARK  248  A    between atoms: _625  and  _627
REMARK  249  A    between atoms: _627  and  MG_715
REMARK  250  A    between atoms: _628  and  _630
REMARK  251  A    between atoms: _630  and  _631
REMARK  252  A    between atoms: _630  and  _633
REMARK  253  A    between atoms: _633  and  _634
REMARK  254  A    between atoms: _634  and  _635
REMARK  255  A    between atoms: _635  and  _636
REMARK  256  A    between atoms: _645  and  _647
REMARK  257  A    between atoms: _647  and  _648
REMARK  258  A    between atoms: _647  and  _650
REMARK  259  A    between atoms: _650  and  _651
REMARK  260  A    between atoms: _654  and  _656
REMARK  261  A    between atoms: _656  and  _657
REMARK  262  A    between atoms: _656  and  _659
REMARK  263  A    between atoms: _659  and  _660
REMARK  264  A    between atoms: _663  and  _665
REMARK  265  A    between atoms: _665  and  _666
REMARK  266  A    between atoms: _665  and  _668
REMARK  267  A    between atoms: _668  and  _669
REMARK  268  A    between atoms: _669  and  _670
REMARK  269  A    between atoms: _675  and  _677
REMARK  270  A    between atoms: _677  and  _678
REMARK  271  A    between atoms: _677  and  _680
REMARK  272  A    between atoms: _680  and  _681
REMARK  273  A    between atoms: _684  and  _686
REMARK  274  A    between atoms: _686  and  _687
REMARK  275  A    between atoms: _686  and  _689
REMARK  276  A    between atoms: _689  and  _690
REMARK  277  A    between atoms: _695  and  _696
REMARK  278  A    between atoms: _698  and  _700
REMARK  279  A    between atoms: _700  and  _701
REMARK  280  A    between atoms: _700  and  _703
REMARK  281  A    between atoms: _703  and  _704
REMARK  282  A    between atoms: _704  and  _705
REMARK  283  A    between atoms: _705  and  _706
REMARK                            x       y       z     vdW  Elec       q    Type
REMARK                         _______ _______ _______ _____ _____    ______ ____
ROOT
ATOM      1  C   LYS A   1      30.100  19.980  15.658  0.00  0.00    +0.238 C 
ATOM      2  O   LYS A   1      31.137  20.120  16.285  0.00  0.00    -0.274 OA
ATOM      3  N   ARG A   2      29.988  20.289  14.369  0.00  0.00    -0.298 N 
ATOM      4  H   ARG A   2      29.075  20.147  13.892  0.00  0.00    +0.150 HD
ENDROOT
BRANCH   1   5
ATOM      5  CA  LYS A   1      28.861  19.422  16.351  0.00  0.00    +0.145 C 
BRANCH   5   6
ATOM      6  N   LYS A   1      27.737  20.339  16.248  0.00  0.00    -0.238 NA
ATOM      7  H   LYS A   1      26.855  20.017  15.801  0.00  0.00    +0.142 HD
ENDBRANCH   5   6
BRANCH   5   8
ATOM      8  CB  LYS A   1      28.504  18.073  15.738  0.00  0.00    +0.026 C 
BRANCH   8   9
ATOM      9  CG  LYS A   1      27.383  17.319  16.442  0.00  0.00    -0.000 C 
BRANCH   9  10
ATOM     10  CD  LYS A   1      27.142  15.967  15.754  0.00  0.00    -0.024 C 
BRANCH  10  11
ATOM     11  CE  LYS A   1      26.729  16.134  14.299  0.00  0.00    -0.086 C 
BRANCH  11  12
ATOM     12  NZ  LYS A   1      25.408  16.813  14.185  0.00  0.00    +0.380 N 
ATOM     13  HZ1 LYS A   1      24.685  16.246  14.671  0.00  0.00    -0.089 HD
ATOM     14  HZ2 LYS A   1      25.465  17.754  14.623  0.00  0.00    -0.089 HD
ATOM     15  HZ3 LYS A   1      25.156  16.911  13.181  0.00  0.00    -0.089 HD
ENDBRANCH  11  12
ENDBRANCH  10  11
ENDBRANCH   9  10
ENDBRANCH   8   9
ENDBRANCH   5   8
ENDBRANCH   1   5
BRANCH   3  16
ATOM     16  CA  ARG A   2      31.113  20.823  13.604  0.00  0.00    +0.137 C 
BRANCH  16  17
ATOM     17  C   ARG A   2      31.889  21.897  14.382  0.00  0.00    +0.227 C 
ATOM     18  O   ARG A   2      33.126  21.881  14.428  0.00  0.00    -0.286 OA
ENDBRANCH  16  17
BRANCH  16  19
ATOM     19  CB  ARG A   2      30.617  21.385  12.262  0.00  0.00    +0.031 C 
BRANCH  19  20
ATOM     20  CG  ARG A   2      31.666  22.191  11.504  0.00  0.00    +0.045 C 
BRANCH  20  21
ATOM     21  CD  ARG A   2      31.320  22.393  10.019  0.00  0.00    +0.174 C 
BRANCH  21  22
ATOM     22  NE  ARG A   2      30.030  23.051   9.770  0.00  0.00    -0.265 N 
ATOM     23  CZ  ARG A   2      29.685  24.256  10.227  0.00  0.00    +0.342 C 
ATOM     24  NH2 ARG A   2      30.531  24.960  10.974  0.00  0.00    -0.292 N 
ATOM     25 HH21 ARG A   2      30.256  25.899  11.327  0.00  0.00    +0.255 HD
ATOM     26 HH22 ARG A   2      31.468  24.572  11.205  0.00  0.00    +0.255 HD
ATOM     27  NH1 ARG A   2      28.496  24.772   9.917  0.00  0.00    -0.292 N 
ATOM     28 HH11 ARG A   2      28.228  25.711  10.274  0.00  0.00    +0.255 HD
ATOM     29 HH12 ARG A   2      27.836  24.235   9.318  0.00  0.00    +0.255 HD
ATOM     30  HE  ARG A   2      29.333  22.538   9.193  0.00  0.00    +0.259 HD
ENDBRANCH  21  22
ENDBRANCH  20  21
ENDBRANCH  19  20
ENDBRANCH  16  19
ENDBRANCH   3  16
TORSDOF 13
REMARK  Name = ../refined-set-2016/1mrn/1mrn_pocket.pdb
REMARK  283 active torsions:
REMARK  status: ('A' for Active; 'I' for Inactive)
REMARK    1  A    between atoms: _1  and  _3
REMARK    2  A    between atoms: _3  and  _4
REMARK    3  A    between atoms: _3  and  _6
REMARK    4  A    between atoms: _6  and  _7
REMARK    5  A    between atoms: _7  and  _8
REMARK    6  A    between atoms: _11  and  _13
REMARK    7  A    between atoms: _13  and  _14
REMARK    8  A    between atoms: _16  and  _18
REMARK    9  A    between atoms: _18  and  _19
REMARK   10  A    between atoms: _18  and  _21
REMARK   11  A    between atoms: _24  and  _26
REMARK   12  A    between atoms: _26  and  _27
REMARK   13  A    between atoms: _26  and  _29
REMARK   14  A    between atoms: _29  and  _30
REMARK   15  A    between atoms: _30  and  _31
REMARK   16  A    between atoms: _31  and  MG_715
REMARK   17  A    between atoms: _33  and  _35
REMARK   18  A    between atoms: _35  and  _36
REMARK   19  A    between atoms: _38  and  _40
REMARK   20  A    between atoms: _40  and  _41
REMARK   21  A    between atoms: _44  and  _46
REMARK   22  A    between atoms: _46  and  _47
REMARK   23  A    between atoms: _46  and  _49
REMARK   24  A    between atoms: _49  and  _50
REMARK   25  A    between atoms: _50  and  _51
REMARK   26  A    between atoms: _51  and  _52
REMARK   27  A    between atoms: _52  and  _53
REMARK   28  A    between atoms: _57  and  _59
REMARK   29  A    between atoms: _59  and  _60
REMARK   30  A    between atoms: _59  and  _62
REMARK   31  A    between atoms: _62  and  _63
REMARK   32  A    between atoms: _63  and  _64
REMARK   33  A    between atoms: _64  and  _65
REMARK   34  A    between atoms: _74  and  _76
REMARK   35  A    between atoms: _76  and  _77
REMARK   36  A    between atoms: _80  and  _82
REMARK   37  A    between atoms: _82  and  _83
REMARK   38  A    between atoms: _82  and  _85
REMARK   39  A    between atoms: _85  and  _86
REMARK   40  A    between atoms: _93  and  _94
REMARK   41  A    between atoms: _99  and  _101
REMARK   42  A    between atoms: _101  and  _102
REMARK   43  A    between atoms: _101  and  _104
REMARK   44  A    between atoms: _104  and  _105
REMARK   45  A    between atoms: _105  and  _106
REMARK   46  A    between atoms: _106  and  _107
REMARK   47  A    between atoms: _116  and  _118
REMARK   48  A    between atoms: _118  and  _119
REMARK   49  A    between atoms: _118  and  _121
REMARK   50  A    between atoms: _121  and  _122
REMARK   51  A    between atoms: _127  and  _128
REMARK   52  A    between atoms: _130  and  _132
REMARK   53  A    between atoms: _132  and  _133
REMARK   54  A    between atoms: _135  and  _137
REMARK   55  A    between atoms: _137  and  _138
REMARK   56  A    between atoms: _137  and  _140
REMARK   57  A    between atoms: _140  and  _141
REMARK   58  A    between atoms: _143  and  _145
REMARK   59  A    between atoms: _145  and  _146
REMARK   60  A    between atoms: _145  and  _148
REMARK   61  A    between atoms: _151  and  _153
REMARK   62  A    between atoms: _153  and  _154
REMARK   63  A    between atoms: _157  and  _159
REMARK   64  A    between atoms: _159  and  _160
REMARK   65  A    between atoms: _159  and  _162
REMARK   66  A    between atoms: _162  and  _163
REMARK   67  A    between atoms: _166  and  _168
REMARK   68  A    between atoms: _168  and  _169
REMARK   69  A    between atoms: _168  and  _171
REMARK   70  A    between atoms: _171  and  _172
REMARK   71  A    between atoms: _175  and  _177
REMARK   72  A    between atoms: _177  and  _178
REMARK   73  A    between atoms: _181  and  _183
REMARK   74  A    between atoms: _183  and  _184
REMARK   75  A    between atoms: _187  and  _189
REMARK   76  A    between atoms: _189  and  _190
REMARK   77  A    between atoms: _189  and  _192
REMARK   78  A    between atoms: _192  and  _193
REMARK   79  A    between atoms: _193  and  _194
REMARK   80  A    between atoms: _197  and  _199
REMARK   81  A    between atoms: _199  and  _200
REMARK   82  A    between atoms: _203  and  _205
REMARK   83  A    between atoms: _205  and  _206
REMARK   84  A    between atoms: _205  and  _208
REMARK   85  A    between atoms: _208  and  _209
REMARK   86  A    between atoms: _212  and  _214
REMARK   87  A    between atoms: _214  and  _215
REMARK   88  A    between atoms: _214  and  _217
REMARK   89  A    between atoms: _217  and  _218
REMARK   90  A    between atoms: _223  and  _225
REMARK   91  A    between atoms: _225  and  _226
REMARK   92  A    between atoms: _228  and  _230
REMARK   93  A    between atoms: _230  and  _231
REMARK   94  A    between atoms: _230  and  _233
REMARK   95  A    between atoms: _233  and  _234
REMARK   96  A    between atoms: _234  and  _235
REMARK   97  A    between atoms: _238  and  _240
REMARK   98  A    between atoms: _240  and  _241
REMARK   99  A    between atoms: _240  and  _243
REMARK  100  A    between atoms: _243  and  _244
REMARK  101  A    between atoms: _249  and  _251
REMARK  102  A    between atoms: _251  and  _252
REMARK  103  A    between atoms: _251  and  _254
REMARK  104  A    between atoms: _257  and  _259
REMARK  105  A    between atoms: _259  and  _260
REMARK  106  A    between atoms: _259  and  _262
REMARK  107  A    between atoms: _262  and  _263
REMARK  108  A    between atoms: _263  and  _264
REMARK  109  A    between atoms: _266  and  _268
REMARK  110  A    between atoms: _268  and  _269
REMARK  111  A    between atoms: _272  and  _274
REMARK  112  A    between atoms: _274  and  _275
REMARK  113  A    between atoms: _274  and  _277
REMARK  114  A    between atoms: _277  and  _278
REMARK  115  A    between atoms: _281  and  _283
REMARK  116  A    between atoms: _283  and  _284
REMARK  117  A    between atoms: _283  and  _286
REMARK  118  A    between atoms: _286  and  _287
REMARK  119  A    between atoms: _290  and  _292
REMARK  120  A    between atoms: _292  and  _293
REMARK  121  A    between atoms: _292  and  _295
REMARK  122  A    between atoms: _295  and  _296
REMARK  123  A    between atoms: _302  and  _304
REMARK  124  A    between atoms: _304  and  _305
REMARK  125  A    between atoms: _308  and  _310
REMARK  126  A    between atoms: _310  and  _311
REMARK  127  A    between atoms: _310  and  _313
REMARK  128  A    between atoms: _313  and  _314
REMARK  129  A    between atoms: _317  and  _319
REMARK  130  A    between atoms: _319  and  _320
REMARK  131  A    between atoms: _319  and  _322
REMARK  132  A    between atoms: _322  and  _323
REMARK  133  A    between atoms: _323  and  _324
REMARK  134  A    between atoms: _324  and  _325
REMARK  135  A    between atoms: _334  and  _336
REMARK  136  A    between atoms: _336  and  _337
REMARK  137  A    between atoms: _336  and  _339
REMARK  138  A    between atoms: _339  and  _340
REMARK  139  A    between atoms: _343  and  _345
REMARK  140  A    between atoms: _345  and  _346
REMARK  141  A    between atoms: _345  and  _348
REMARK  142  A    between atoms: _348  and  _349
REMARK  143  A    between atoms: _349  and  _350
REMARK  144  A    between atoms: _350  and  _351
REMARK  145  A    between atoms: _360  and  _362
REMARK  146  A    between atoms: _362  and  _363
REMARK  147  A    between atoms: _362  and  _365
REMARK  148  A    between atoms: _365  and  _366
REMARK  149  A    between atoms: _371  and  _372
REMARK  150  A    between atoms: _374  and  _376
REMARK  151  A    between atoms: _376  and  _377
REMARK  152  A    between atoms: _376  and  _379
REMARK  153  A    between atoms: _382  and  _384
REMARK  154  A    between atoms: _384  and  _385
REMARK  155  A    between atoms: _388  and  _390
REMARK  156  A    between atoms: _390  and  _391
REMARK  157  A    between atoms: _390  and  _393
REMARK  158  A    between atoms: _393  and  _394
REMARK  159  A    between atoms: _396  and  _398
REMARK  160  A    between atoms: _398  and  _399
REMARK  161  A    between atoms: _398  and  _401
REMARK  162  A    between atoms: _401  and  _402
REMARK  163  A    between atoms: _407  and  _409
REMARK  164  A    between atoms: _409  and  _410
REMARK  165  A    between atoms: _413  and  _415
REMARK  166  A    between atoms: _415  and  _416
REMARK  167  A    between atoms: _419  and  _421
REMARK  168  A    between atoms: _421  and  _422
REMARK  169  A    between atoms: _421  and  _424
REMARK  170  A    between atoms: _424  and  _425
REMARK  171  A    between atoms: _430  and  _431
REMARK  172  A    between atoms: _433  and  _435
REMARK  173  A    between atoms: _435  and  _436
REMARK  174  A    between atoms: _435  and  _438
REMARK  175  A    between atoms: _438  and  _439
REMARK  176  A    between atoms: _441  and  _443
REMARK  177  A    between atoms: _443  and  _444
REMARK  178  A    between atoms: _447  and  _449
REMARK  179  A    between atoms: _449  and  _450
REMARK  180  A    between atoms: _449  and  _452
REMARK  181  A    between atoms: _452  and  _453
REMARK  182  A    between atoms: _453  and  _454
REMARK  183  A    between atoms: _454  and  _455
REMARK  184  A    between atoms: _464  and  _466
REMARK  185  A    between atoms: _466  and  _467
REMARK  186  A    between atoms: _466  and  _469
REMARK  187  A    between atoms: _472  and  _474
REMARK  188  A    between atoms: _474  and  _475
REMARK  189  A    between atoms: _474  and  _477
REMARK  190  A    between atoms: _477  and  _478
REMARK  191  A    between atoms: _478  and  _479
REMARK  192  A    between atoms: _482  and  _484
REMARK  193  A    between atoms: _484  and  _485
REMARK  194  A    between atoms: _484  and  _487
REMARK  195  A    between atoms: _487  and  _488
REMARK  196  A    between atoms: _490  and  _492
REMARK  197  A    between atoms: _492  and  _493
REMARK  198  A    between atoms: _492  and  _495
REMARK  199  A    between atoms: _495  and  _496
REMARK  200  A    between atoms: _496  and  _497
REMARK  201  A    between atoms: _497  and  _498
REMARK  202  A    between atoms: _507  and  _509
REMARK  203  A    between atoms: _509  and  _510
REMARK  204  A    between atoms: _513  and  _515
REMARK  205  A    between atoms: _515  and  _516
REMARK  206  A    between atoms: _515  and  _518
REMARK  207  A    between atoms: _518  and  _519
REMARK  208  A    between atoms: _519  and  _520
REMARK  209  A    between atoms: _520  and  _521
REMARK  210  A    between atoms: _530  and  _532
REMARK  211  A    between atoms: _532  and  _533
REMARK  212  A    between atoms: _532  and  _535
REMARK  213  A    between atoms: _535  and  _536
REMARK  214  A    between atoms: _539  and  _541
REMARK  215  A    between atoms: _541  and  _542
REMARK  216  A    between atoms: _544  and  _546
REMARK  217  A    between atoms: _546  and  _547
REMARK  218  A    between atoms: _546  and  _549
REMARK  219  A    between atoms: _549  and  _550
REMARK  220  A    between atoms: _550  and  _551
REMARK  221  A    between atoms: _551  and  _552
REMARK  222  A    between atoms: _561  and  _563
REMARK  223  A    between atoms: _563  and  _564
REMARK  224  A    between atoms: _567  and  _569
REMARK  225  A    between atoms: _569  and  _570
REMARK  226  A    between atoms: _569  and  _572
REMARK  227  A    between atoms: _572  and  _573
REMARK  228  A    between atoms: _573  and  _574
REMARK  229  A    between atoms: _574  and  _575
REMARK  230  A    between atoms: _584  and  _586
REMARK  231  A    between atoms: _586  and  _587
REMARK  232  A    between atoms: _586  and  _589
REMARK  233  A    between atoms: _589  and  _590
REMARK  234  A    between atoms: _593  and  _595
REMARK  235  A    between atoms: _595  and  _596
REMARK  236  A    between atoms: _595  and  _598
REMARK  237  A    between atoms: _598  and  _599
REMARK  238  A    between atoms: _604  and  _606
REMARK  239  A    between atoms: _606  and  _607
REMARK  240  A    between atoms: _606  and  _609
REMARK  241  A    between atoms: _609  and  _610
REMARK  242  A    between atoms: _615  and  _616
REMARK  243  A    between atoms: _618  and  _620
REMARK  244  A    between atoms: _620  and  _621
REMARK  245  A    between atoms: _620  and  _623
REMARK  246  A    between atoms: _623  and  _624
REMARK  247  A    between atoms: _624  and  _625
REMARK  248  A    between atoms: _625  and  _627
REMARK  249  A    between atoms: _627  and  MG_715
REMARK  250  A    between atoms: _628  and  _630
REMARK  251  A    between atoms: _630  and  _631
REMARK  252  A    between atoms: _630  and  _633
REMARK  253  A    between atoms: _633  and  _634
REMARK  254  A    between atoms: _634  and  _635
REMARK  255  A    between atoms: _635  and  _636
REMARK  256  A    between atoms: _645  and  _647
REMARK  257  A    between atoms: _647  and  _648
REMARK  258  A    between atoms: _647  and  _650
REMARK  259  A    between atoms: _650  and  _651
REMARK  260  A    between atoms: _654  and  _656
REMARK  261  A    between atoms: _656  and  _657
REMARK  262  A    between atoms: _656  and  _659
REMARK  263  A    between atoms: _659  and  _660
REMARK  264  A    between atoms: _663  and  _665
REMARK  265  A    between atoms: _665  and  _666
REMARK  266  A    between atoms: _665  and  _668
REMARK  267  A    between atoms: _668  and  _669
REMARK  268  A    between atoms: _669  and  _670
REMARK  269  A    between atoms: _675  and  _677
REMARK  270  A    between atoms: _677  and  _678
REMARK  271  A    between atoms: _677  and  _680
REMARK  272  A    between atoms: _680  and  _681
REMARK  273  A    between atoms: _684  and  _686
REMARK  274  A    between atoms: _686  and  _687
REMARK  275  A    between atoms: _686  and  _689
REMARK  276  A    between atoms: _689  and  _690
REMARK  277  A    between atoms: _695  and  _696
REMARK  278  A    between atoms: _698  and  _700
REMARK  279  A    between atoms: _700  and  _701
REMARK  280  A    between atoms: _700  and  _703
REMARK  281  A    between atoms: _703  and  _704
REMARK  282  A    between atoms: _704  and  _705
REMARK  283  A    between atoms: _705  and  _706
REMARK                            x       y       z     vdW  Elec       q    Type
REMARK                         _______ _______ _______ _____ _____    ______ ____
ROOT
ATOM      1  CA  ARG A   4      33.898  11.214   4.438  0.00  0.00    +0.149 C 
ENDROOT
BRANCH   1   4
ATOM      2  C   PRO A   3      31.795  11.516   5.590  0.00  0.00    +0.241 C 
ATOM      3  O   PRO A   3      31.902  12.744   5.548  0.00  0.00    -0.273 OA
ATOM      4  N   ARG A   4      32.701  10.694   5.074  0.00  0.00    -0.297 N 
ATOM      5  H   ARG A   4      32.552   9.666   5.126  0.00  0.00    +0.150 HD
BRANCH   2  12
ATOM      6  C   PHE A   2      30.514  11.879   8.532  0.00  0.00    +0.244 C 
ATOM      7  O   PHE A   2      29.930  12.531   9.389  0.00  0.00    -0.273 OA
ATOM      8  N   PRO A   3      29.994  11.663   7.318  0.00  0.00    -0.272 N 
ATOM      9  CD  PRO A   3      28.660  12.152   6.941  0.00  0.00    +0.094 C 
ATOM     10  CG  PRO A   3      28.185  11.054   6.036  0.00  0.00    +0.024 C 
ATOM     11  CB  PRO A   3      29.416  10.738   5.227  0.00  0.00    +0.031 C 
ATOM     12  CA  PRO A   3      30.576  10.867   6.229  0.00  0.00    +0.152 C 
BRANCH   6  13
ATOM     13  CA  PHE A   2      31.857  11.267   8.832  0.00  0.00    +0.153 C 
BRANCH  13  15
ATOM     14  C   ALA A   1      33.642  12.882   9.089  0.00  0.00    +0.238 C 
ATOM     15  N   PHE A   2      32.591  12.260   9.598  0.00  0.00    -0.297 N 
ATOM     16  H   PHE A   2      32.284  12.486  10.566  0.00  0.00    +0.150 HD
ATOM     17  O   ALA A   1      34.101  12.617   7.980  0.00  0.00    -0.274 OA
BRANCH  14  18
ATOM     18  CA  ALA A   1      34.298  13.928   9.980  0.00  0.00    +0.145 C 
ATOM     19  CB  ALA A   1      33.865  15.336   9.568  0.00  0.00    +0.028 C 
BRANCH  18  20
ATOM     20  N   ALA A   1      35.736  13.804   9.902  0.00  0.00    -0.238 NA
ATOM     21  H   ALA A   1      36.231  13.968   9.002  0.00  0.00    +0.142 HD
ENDBRANCH  18  20
ENDBRANCH  14  18
ENDBRANCH  13  15
BRANCH  13  22
ATOM     22  CB  PHE A   2      31.687   9.980   9.636  0.00  0.00    +0.055 C 
BRANCH  22  23
ATOM     23  CG  PHE A   2      32.939   9.168   9.725  0.00  0.00    -0.020 A 
ATOM     24  CD2 PHE A   2      33.690   9.146  10.903  0.00  0.00    -0.004 A 
ATOM     25  CE2 PHE A   2      34.880   8.443  10.967  0.00  0.00    -0.000 A 
ATOM     26  CZ  PHE A   2      35.341   7.743   9.846  0.00  0.00    -0.000 A 
ATOM     27  CE1 PHE A   2      34.604   7.753   8.669  0.00  0.00    -0.000 A 
ATOM     28  CD1 PHE A   2      33.403   8.466   8.611  0.00  0.00    -0.004 A 
ENDBRANCH  22  23
ENDBRANCH  13  22
ENDBRANCH   6  13
ENDBRANCH   2  12
ENDBRANCH   1   4
BRANCH   1  29
ATOM     29  C   ARG A   4      33.634  11.508   2.963  0.00  0.00    +0.241 C 
ATOM     30  N   TYR A   5      32.972  12.635   2.722  0.00  0.00    -0.297 N 
ATOM     31  H   TYR A   5      32.693  13.237   3.522  0.00  0.00    +0.150 HD
ATOM     32  O   ARG A   4      34.017  10.743   2.071  0.00  0.00    -0.273 OA
BRANCH  30  33
ATOM     33  CA  TYR A   5      32.627  13.050   1.373  0.00  0.00    +0.153 C 
BRANCH  33  34
ATOM     34  C   TYR A   5      33.875  13.265   0.534  0.00  0.00    +0.241 C 
ATOM     35  O   TYR A   5      34.842  13.903   0.982  0.00  0.00    -0.273 OA
ATOM     36  N   GLY A   6      33.851  12.718  -0.679  0.00  0.00    -0.296 N 
ATOM     37  H   GLY A   6      33.009  12.192  -0.989  0.00  0.00    +0.150 HD
BRANCH  36  38
ATOM     38  CA  GLY A   6      34.985  12.847  -1.573  0.00  0.00    +0.163 C 
BRANCH  38  39
ATOM     39  C   GLY A   6      35.994  11.718  -1.423  0.00  0.00    +0.229 C 
ATOM     40  O   GLY A   6      36.654  11.327  -2.386  0.00  0.00    -0.286 OA
ENDBRANCH  38  39
ENDBRANCH  36  38
ENDBRANCH  33  34
BRANCH  33  41
ATOM     41  CB  TYR A   5      31.797  14.331   1.425  0.00  0.00    +0.055 C 
BRANCH  41  42
ATOM     42  CG  TYR A   5      30.501  14.170   2.187  0.00  0.00    -0.020 A 
ATOM     43  CD2 TYR A   5      30.156  15.040   3.226  0.00  0.00    -0.001 A 
ATOM     44  CE2 TYR A   5      28.952  14.892   3.916  0.00  0.00    +0.036 A 
ATOM     45  CZ  TYR A   5      28.088  13.863   3.563  0.00  0.00    +0.134 A 
ATOM     46  CE1 TYR A   5      28.414  12.993   2.537  0.00  0.00    +0.036 A 
ATOM     47  CD1 TYR A   5      29.610  13.149   1.860  0.00  0.00    -0.001 A 
BRANCH  45  48
ATOM     48  OH  TYR A   5      26.896  13.674   4.223  0.00  0.00    -0.506 OA
ATOM     49  HH  TYR A   5      26.336  14.485   4.129  0.00  0.00    +0.292 HD
ENDBRANCH  45  48
ENDBRANCH  41  42
ENDBRANCH  33  41
ENDBRANCH  30  33
ENDBRANCH   1  29
BRANCH   1  50
ATOM     50  CB  ARG A   4      35.053  10.227   4.596  0.00  0.00    +0.033 C 
BRANCH  50  51
ATOM     51  CG  ARG A   4      35.536  10.067   6.040  0.00  0.00    +0.045 C 
BRANCH  51  52
ATOM     52  CD  ARG A   4      36.688   9.086   6.123  0.00  0.00    +0.174 C 
BRANCH  52  53
ATOM     53  NE  ARG A   4      36.357   7.873   5.390  0.00  0.00    -0.265 N 
ATOM     54  HE  ARG A   4      35.448   7.413   5.599  0.00  0.00    +0.259 HD
ATOM     55  CZ  ARG A   4      37.136   7.314   4.474  0.00  0.00    +0.342 C 
ATOM     56  NH2 ARG A   4      38.307   7.853   4.177  0.00  0.00    -0.292 N 
ATOM     57 HH21 ARG A   4      38.619   8.718   4.662  0.00  0.00    +0.255 HD
ATOM     58 HH22 ARG A   4      38.915   7.412   3.458  0.00  0.00    +0.255 HD
ATOM     59  NH1 ARG A   4      36.731   6.229   3.831  0.00  0.00    -0.292 N 
ATOM     60 HH11 ARG A   4      35.801   5.815   4.044  0.00  0.00    +0.255 HD
ATOM     61 HH12 ARG A   4      37.343   5.791   3.113  0.00  0.00    +0.255 HD
ENDBRANCH  52  53
ENDBRANCH  51  52
ENDBRANCH  50  51
ENDBRANCH   1  50
TORSDOF 20
REMARK  Name = ../refined-set-2016/1mrn/1mrn_pocket.pdb
REMARK  283 active torsions:
REMARK  status: ('A' for Active; 'I' for Inactive)
REMARK    1  A    between atoms: _1  and  _3
REMARK    2  A    between atoms: _3  and  _4
REMARK    3  A    between atoms: _3  and  _6
REMARK    4  A    between atoms: _6  and  _7
REMARK    5  A    between atoms: _7  and  _8
REMARK    6  A    between atoms: _11  and  _13
REMARK    7  A    between atoms: _13  and  _14
REMARK    8  A    between atoms: _16  and  _18
REMARK    9  A    between atoms: _18  and  _19
REMARK   10  A    between atoms: _18  and  _21
REMARK   11  A    between atoms: _24  and  _26
REMARK   12  A    between atoms: _26  and  _27
REMARK   13  A    between atoms: _26  and  _29
REMARK   14  A    between atoms: _29  and  _30
REMARK   15  A    between atoms: _30  and  _31
REMARK   16  A    between atoms: _31  and  MG_715
REMARK   17  A    between atoms: _33  and  _35
REMARK   18  A    between atoms: _35  and  _36
REMARK   19  A    between atoms: _38  and  _40
REMARK   20  A    between atoms: _40  and  _41
REMARK   21  A    between atoms: _44  and  _46
REMARK   22  A    between atoms: _46  and  _47
REMARK   23  A    between atoms: _46  and  _49
REMARK   24  A    between atoms: _49  and  _50
REMARK   25  A    between atoms: _50  and  _51
REMARK   26  A    between atoms: _51  and  _52
REMARK   27  A    between atoms: _52  and  _53
REMARK   28  A    between atoms: _57  and  _59
REMARK   29  A    between atoms: _59  and  _60
REMARK   30  A    between atoms: _59  and  _62
REMARK   31  A    between atoms: _62  and  _63
REMARK   32  A    between atoms: _63  and  _64
REMARK   33  A    between atoms: _64  and  _65
REMARK   34  A    between atoms: _74  and  _76
REMARK   35  A    between atoms: _76  and  _77
REMARK   36  A    between atoms: _80  and  _82
REMARK   37  A    between atoms: _82  and  _83
REMARK   38  A    between atoms: _82  and  _85
REMARK   39  A    between atoms: _85  and  _86
REMARK   40  A    between atoms: _93  and  _94
REMARK   41  A    between atoms: _99  and  _101
REMARK   42  A    between atoms: _101  and  _102
REMARK   43  A    between atoms: _101  and  _104
REMARK   44  A    between atoms: _104  and  _105
REMARK   45  A    between atoms: _105  and  _106
REMARK   46  A    between atoms: _106  and  _107
REMARK   47  A    between atoms: _116  and  _118
REMARK   48  A    between atoms: _118  and  _119
REMARK   49  A    between atoms: _118  and  _121
REMARK   50  A    between atoms: _121  and  _122
REMARK   51  A    between atoms: _127  and  _128
REMARK   52  A    between atoms: _130  and  _132
REMARK   53  A    between atoms: _132  and  _133
REMARK   54  A    between atoms: _135  and  _137
REMARK   55  A    between atoms: _137  and  _138
REMARK   56  A    between atoms: _137  and  _140
REMARK   57  A    between atoms: _140  and  _141
REMARK   58  A    between atoms: _143  and  _145
REMARK   59  A    between atoms: _145  and  _146
REMARK   60  A    between atoms: _145  and  _148
REMARK   61  A    between atoms: _151  and  _153
REMARK   62  A    between atoms: _153  and  _154
REMARK   63  A    between atoms: _157  and  _159
REMARK   64  A    between atoms: _159  and  _160
REMARK   65  A    between atoms: _159  and  _162
REMARK   66  A    between atoms: _162  and  _163
REMARK   67  A    between atoms: _166  and  _168
REMARK   68  A    between atoms: _168  and  _169
REMARK   69  A    between atoms: _168  and  _171
REMARK   70  A    between atoms: _171  and  _172
REMARK   71  A    between atoms: _175  and  _177
REMARK   72  A    between atoms: _177  and  _178
REMARK   73  A    between atoms: _181  and  _183
REMARK   74  A    between atoms: _183  and  _184
REMARK   75  A    between atoms: _187  and  _189
REMARK   76  A    between atoms: _189  and  _190
REMARK   77  A    between atoms: _189  and  _192
REMARK   78  A    between atoms: _192  and  _193
REMARK   79  A    between atoms: _193  and  _194
REMARK   80  A    between atoms: _197  and  _199
REMARK   81  A    between atoms: _199  and  _200
REMARK   82  A    between atoms: _203  and  _205
REMARK   83  A    between atoms: _205  and  _206
REMARK   84  A    between atoms: _205  and  _208
REMARK   85  A    between atoms: _208  and  _209
REMARK   86  A    between atoms: _212  and  _214
REMARK   87  A    between atoms: _214  and  _215
REMARK   88  A    between atoms: _214  and  _217
REMARK   89  A    between atoms: _217  and  _218
REMARK   90  A    between atoms: _223  and  _225
REMARK   91  A    between atoms: _225  and  _226
REMARK   92  A    between atoms: _228  and  _230
REMARK   93  A    between atoms: _230  and  _231
REMARK   94  A    between atoms: _230  and  _233
REMARK   95  A    between atoms: _233  and  _234
REMARK   96  A    between atoms: _234  and  _235
REMARK   97  A    between atoms: _238  and  _240
REMARK   98  A    between atoms: _240  and  _241
REMARK   99  A    between atoms: _240  and  _243
REMARK  100  A    between atoms: _243  and  _244
REMARK  101  A    between atoms: _249  and  _251
REMARK  102  A    between atoms: _251  and  _252
REMARK  103  A    between atoms: _251  and  _254
REMARK  104  A    between atoms: _257  and  _259
REMARK  105  A    between atoms: _259  and  _260
REMARK  106  A    between atoms: _259  and  _262
REMARK  107  A    between atoms: _262  and  _263
REMARK  108  A    between atoms: _263  and  _264
REMARK  109  A    between atoms: _266  and  _268
REMARK  110  A    between atoms: _268  and  _269
REMARK  111  A    between atoms: _272  and  _274
REMARK  112  A    between atoms: _274  and  _275
REMARK  113  A    between atoms: _274  and  _277
REMARK  114  A    between atoms: _277  and  _278
REMARK  115  A    between atoms: _281  and  _283
REMARK  116  A    between atoms: _283  and  _284
REMARK  117  A    between atoms: _283  and  _286
REMARK  118  A    between atoms: _286  and  _287
REMARK  119  A    between atoms: _290  and  _292
REMARK  120  A    between atoms: _292  and  _293
REMARK  121  A    between atoms: _292  and  _295
REMARK  122  A    between atoms: _295  and  _296
REMARK  123  A    between atoms: _302  and  _304
REMARK  124  A    between atoms: _304  and  _305
REMARK  125  A    between atoms: _308  and  _310
REMARK  126  A    between atoms: _310  and  _311
REMARK  127  A    between atoms: _310  and  _313
REMARK  128  A    between atoms: _313  and  _314
REMARK  129  A    between atoms: _317  and  _319
REMARK  130  A    between atoms: _319  and  _320
REMARK  131  A    between atoms: _319  and  _322
REMARK  132  A    between atoms: _322  and  _323
REMARK  133  A    between atoms: _323  and  _324
REMARK  134  A    between atoms: _324  and  _325
REMARK  135  A    between atoms: _334  and  _336
REMARK  136  A    between atoms: _336  and  _337
REMARK  137  A    between atoms: _336  and  _339
REMARK  138  A    between atoms: _339  and  _340
REMARK  139  A    between atoms: _343  and  _345
REMARK  140  A    between atoms: _345  and  _346
REMARK  141  A    between atoms: _345  and  _348
REMARK  142  A    between atoms: _348  and  _349
REMARK  143  A    between atoms: _349  and  _350
REMARK  144  A    between atoms: _350  and  _351
REMARK  145  A    between atoms: _360  and  _362
REMARK  146  A    between atoms: _362  and  _363
REMARK  147  A    between atoms: _362  and  _365
REMARK  148  A    between atoms: _365  and  _366
REMARK  149  A    between atoms: _371  and  _372
REMARK  150  A    between atoms: _374  and  _376
REMARK  151  A    between atoms: _376  and  _377
REMARK  152  A    between atoms: _376  and  _379
REMARK  153  A    between atoms: _382  and  _384
REMARK  154  A    between atoms: _384  and  _385
REMARK  155  A    between atoms: _388  and  _390
REMARK  156  A    between atoms: _390  and  _391
REMARK  157  A    between atoms: _390  and  _393
REMARK  158  A    between atoms: _393  and  _394
REMARK  159  A    between atoms: _396  and  _398
REMARK  160  A    between atoms: _398  and  _399
REMARK  161  A    between atoms: _398  and  _401
REMARK  162  A    between atoms: _401  and  _402
REMARK  163  A    between atoms: _407  and  _409
REMARK  164  A    between atoms: _409  and  _410
REMARK  165  A    between atoms: _413  and  _415
REMARK  166  A    between atoms: _415  and  _416
REMARK  167  A    between atoms: _419  and  _421
REMARK  168  A    between atoms: _421  and  _422
REMARK  169  A    between atoms: _421  and  _424
REMARK  170  A    between atoms: _424  and  _425
REMARK  171  A    between atoms: _430  and  _431
REMARK  172  A    between atoms: _433  and  _435
REMARK  173  A    between atoms: _435  and  _436
REMARK  174  A    between atoms: _435  and  _438
REMARK  175  A    between atoms: _438  and  _439
REMARK  176  A    between atoms: _441  and  _443
REMARK  177  A    between atoms: _443  and  _444
REMARK  178  A    between atoms: _447  and  _449
REMARK  179  A    between atoms: _449  and  _450
REMARK  180  A    between atoms: _449  and  _452
REMARK  181  A    between atoms: _452  and  _453
REMARK  182  A    between atoms: _453  and  _454
REMARK  183  A    between atoms: _454  and  _455
REMARK  184  A    between atoms: _464  and  _466
REMARK  185  A    between atoms: _466  and  _467
REMARK  186  A    between atoms: _466  and  _469
REMARK  187  A    between atoms: _472  and  _474
REMARK  188  A    between atoms: _474  and  _475
REMARK  189  A    between atoms: _474  and  _477
REMARK  190  A    between atoms: _477  and  _478
REMARK  191  A    between atoms: _478  and  _479
REMARK  192  A    between atoms: _482  and  _484
REMARK  193  A    between atoms: _484  and  _485
REMARK  194  A    between atoms: _484  and  _487
REMARK  195  A    between atoms: _487  and  _488
REMARK  196  A    between atoms: _490  and  _492
REMARK  197  A    between atoms: _492  and  _493
REMARK  198  A    between atoms: _492  and  _495
REMARK  199  A    between atoms: _495  and  _496
REMARK  200  A    between atoms: _496  and  _497
REMARK  201  A    between atoms: _497  and  _498
REMARK  202  A    between atoms: _507  and  _509
REMARK  203  A    between atoms: _509  and  _510
REMARK  204  A    between atoms: _513  and  _515
REMARK  205  A    between atoms: _515  and  _516
REMARK  206  A    between atoms: _515  and  _518
REMARK  207  A    between atoms: _518  and  _519
REMARK  208  A    between atoms: _519  and  _520
REMARK  209  A    between atoms: _520  and  _521
REMARK  210  A    between atoms: _530  and  _532
REMARK  211  A    between atoms: _532  and  _533
REMARK  212  A    between atoms: _532  and  _535
REMARK  213  A    between atoms: _535  and  _536
REMARK  214  A    between atoms: _539  and  _541
REMARK  215  A    between atoms: _541  and  _542
REMARK  216  A    between atoms: _544  and  _546
REMARK  217  A    between atoms: _546  and  _547
REMARK  218  A    between atoms: _546  and  _549
REMARK  219  A    between atoms: _549  and  _550
REMARK  220  A    between atoms: _550  and  _551
REMARK  221  A    between atoms: _551  and  _552
REMARK  222  A    between atoms: _561  and  _563
REMARK  223  A    between atoms: _563  and  _564
REMARK  224  A    between atoms: _567  and  _569
REMARK  225  A    between atoms: _569  and  _570
REMARK  226  A    between atoms: _569  and  _572
REMARK  227  A    between atoms: _572  and  _573
REMARK  228  A    between atoms: _573  and  _574
REMARK  229  A    between atoms: _574  and  _575
REMARK  230  A    between atoms: _584  and  _586
REMARK  231  A    between atoms: _586  and  _587
REMARK  232  A    between atoms: _586  and  _589
REMARK  233  A    between atoms: _589  and  _590
REMARK  234  A    between atoms: _593  and  _595
REMARK  235  A    between atoms: _595  and  _596
REMARK  236  A    between atoms: _595  and  _598
REMARK  237  A    between atoms: _598  and  _599
REMARK  238  A    between atoms: _604  and  _606
REMARK  239  A    between atoms: _606  and  _607
REMARK  240  A    between atoms: _606  and  _609
REMARK  241  A    between atoms: _609  and  _610
REMARK  242  A    between atoms: _615  and  _616
REMARK  243  A    between atoms: _618  and  _620
REMARK  244  A    between atoms: _620  and  _621
REMARK  245  A    between atoms: _620  and  _623
REMARK  246  A    between atoms: _623  and  _624
REMARK  247  A    between atoms: _624  and  _625
REMARK  248  A    between atoms: _625  and  _627
REMARK  249  A    between atoms: _627  and  MG_715
REMARK  250  A    between atoms: _628  and  _630
REMARK  251  A    between atoms: _630  and  _631
REMARK  252  A    between atoms: _630  and  _633
REMARK  253  A    between atoms: _633  and  _634
REMARK  254  A    between atoms: _634  and  _635
REMARK  255  A    between atoms: _635  and  _636
REMARK  256  A    between atoms: _645  and  _647
REMARK  257  A    between atoms: _647  and  _648
REMARK  258  A    between atoms: _647  and  _650
REMARK  259  A    between atoms: _650  and  _651
REMARK  260  A    between atoms: _654  and  _656
REMARK  261  A    between atoms: _656  and  _657
REMARK  262  A    between atoms: _656  and  _659
REMARK  263  A    between atoms: _659  and  _660
REMARK  264  A    between atoms: _663  and  _665
REMARK  265  A    between atoms: _665  and  _666
REMARK  266  A    between atoms: _665  and  _668
REMARK  267  A    between atoms: _668  and  _669
REMARK  268  A    between atoms: _669  and  _670
REMARK  269  A    between atoms: _675  and  _677
REMARK  270  A    between atoms: _677  and  _678
REMARK  271  A    between atoms: _677  and  _680
REMARK  272  A    between atoms: _680  and  _681
REMARK  273  A    between atoms: _684  and  _686
REMARK  274  A    between atoms: _686  and  _687
REMARK  275  A    between atoms: _686  and  _689
REMARK  276  A    between atoms: _689  and  _690
REMARK  277  A    between atoms: _695  and  _696
REMARK  278  A    between atoms: _698  and  _700
REMARK  279  A    between atoms: _700  and  _701
REMARK  280  A    between atoms: _700  and  _703
REMARK  281  A    between atoms: _703  and  _704
REMARK  282  A    between atoms: _704  and  _705
REMARK  283  A    between atoms: _705  and  _706
REMARK                            x       y       z     vdW  Elec       q    Type
REMARK                         _______ _______ _______ _____ _____    ______ ____
ROOT
ATOM      1  C   SER A   1      33.138   7.642  -0.785  0.00  0.00    +0.241 C 
ATOM      2  O   SER A   1      32.265   8.492  -0.659  0.00  0.00    -0.274 OA
ATOM      3  N   VAL A   2      33.161   6.787  -1.798  0.00  0.00    -0.298 N 
ATOM      4  H   VAL A   2      33.934   6.094  -1.866  0.00  0.00    +0.150 HD
ENDROOT
BRANCH   1   5
ATOM      5  CA  SER A   1      34.274   7.526   0.233  0.00  0.00    +0.174 C 
BRANCH   5   6
ATOM      6  N   SER A   1      35.068   8.744   0.289  0.00  0.00    -0.236 NA
ATOM      7  H   SER A   1      34.617   9.627   0.603  0.00  0.00    +0.142 HD
ENDBRANCH   5   6
BRANCH   5   8
ATOM      8  CB  SER A   1      33.690   7.218   1.607  0.00  0.00    +0.163 C 
BRANCH   8   9
ATOM      9  OG  SER A   1      32.839   6.088   1.535  0.00  0.00    -0.380 OA
ATOM     10  H   SER A   1      33.357   5.306   1.220  0.00  0.00    +0.211 HD
ENDBRANCH   8   9
ENDBRANCH   5   8
ENDBRANCH   1   5
BRANCH   3  11
ATOM     11  CA  VAL A   2      32.125   6.803  -2.812  0.00  0.00    +0.137 C 
BRANCH  11  12
ATOM     12  CB  VAL A   2      32.393   5.743  -3.892  0.00  0.00    +0.026 C 
ATOM     13  CG2 VAL A   2      33.680   6.080  -4.620  0.00  0.00    +0.002 C 
ATOM     14  CG1 VAL A   2      31.227   5.679  -4.870  0.00  0.00    +0.002 C 
ENDBRANCH  11  12
BRANCH  11  15
ATOM     15  C   VAL A   2      30.796   6.502  -2.140  0.00  0.00    +0.227 C 
ATOM     16  O   VAL A   2      29.772   7.112  -2.459  0.00  0.00    -0.286 OA
ENDBRANCH  11  15
ENDBRANCH   3  11
TORSDOF 7
REMARK  Name = ../refined-set-2016/1mrn/1mrn_pocket.pdb
REMARK  283 active torsions:
REMARK  status: ('A' for Active; 'I' for Inactive)
REMARK    1  A    between atoms: _1  and  _3
REMARK    2  A    between atoms: _3  and  _4
REMARK    3  A    between atoms: _3  and  _6
REMARK    4  A    between atoms: _6  and  _7
REMARK    5  A    between atoms: _7  and  _8
REMARK    6  A    between atoms: _11  and  _13
REMARK    7  A    between atoms: _13  and  _14
REMARK    8  A    between atoms: _16  and  _18
REMARK    9  A    between atoms: _18  and  _19
REMARK   10  A    between atoms: _18  and  _21
REMARK   11  A    between atoms: _24  and  _26
REMARK   12  A    between atoms: _26  and  _27
REMARK   13  A    between atoms: _26  and  _29
REMARK   14  A    between atoms: _29  and  _30
REMARK   15  A    between atoms: _30  and  _31
REMARK   16  A    between atoms: _31  and  MG_715
REMARK   17  A    between atoms: _33  and  _35
REMARK   18  A    between atoms: _35  and  _36
REMARK   19  A    between atoms: _38  and  _40
REMARK   20  A    between atoms: _40  and  _41
REMARK   21  A    between atoms: _44  and  _46
REMARK   22  A    between atoms: _46  and  _47
REMARK   23  A    between atoms: _46  and  _49
REMARK   24  A    between atoms: _49  and  _50
REMARK   25  A    between atoms: _50  and  _51
REMARK   26  A    between atoms: _51  and  _52
REMARK   27  A    between atoms: _52  and  _53
REMARK   28  A    between atoms: _57  and  _59
REMARK   29  A    between atoms: _59  and  _60
REMARK   30  A    between atoms: _59  and  _62
REMARK   31  A    between atoms: _62  and  _63
REMARK   32  A    between atoms: _63  and  _64
REMARK   33  A    between atoms: _64  and  _65
REMARK   34  A    between atoms: _74  and  _76
REMARK   35  A    between atoms: _76  and  _77
REMARK   36  A    between atoms: _80  and  _82
REMARK   37  A    between atoms: _82  and  _83
REMARK   38  A    between atoms: _82  and  _85
REMARK   39  A    between atoms: _85  and  _86
REMARK   40  A    between atoms: _93  and  _94
REMARK   41  A    between atoms: _99  and  _101
REMARK   42  A    between atoms: _101  and  _102
REMARK   43  A    between atoms: _101  and  _104
REMARK   44  A    between atoms: _104  and  _105
REMARK   45  A    between atoms: _105  and  _106
REMARK   46  A    between atoms: _106  and  _107
REMARK   47  A    between atoms: _116  and  _118
REMARK   48  A    between atoms: _118  and  _119
REMARK   49  A    between atoms: _118  and  _121
REMARK   50  A    between atoms: _121  and  _122
REMARK   51  A    between atoms: _127  and  _128
REMARK   52  A    between atoms: _130  and  _132
REMARK   53  A    between atoms: _132  and  _133
REMARK   54  A    between atoms: _135  and  _137
REMARK   55  A    between atoms: _137  and  _138
REMARK   56  A    between atoms: _137  and  _140
REMARK   57  A    between atoms: _140  and  _141
REMARK   58  A    between atoms: _143  and  _145
REMARK   59  A    between atoms: _145  and  _146
REMARK   60  A    between atoms: _145  and  _148
REMARK   61  A    between atoms: _151  and  _153
REMARK   62  A    between atoms: _153  and  _154
REMARK   63  A    between atoms: _157  and  _159
REMARK   64  A    between atoms: _159  and  _160
REMARK   65  A    between atoms: _159  and  _162
REMARK   66  A    between atoms: _162  and  _163
REMARK   67  A    between atoms: _166  and  _168
REMARK   68  A    between atoms: _168  and  _169
REMARK   69  A    between atoms: _168  and  _171
REMARK   70  A    between atoms: _171  and  _172
REMARK   71  A    between atoms: _175  and  _177
REMARK   72  A    between atoms: _177  and  _178
REMARK   73  A    between atoms: _181  and  _183
REMARK   74  A    between atoms: _183  and  _184
REMARK   75  A    between atoms: _187  and  _189
REMARK   76  A    between atoms: _189  and  _190
REMARK   77  A    between atoms: _189  and  _192
REMARK   78  A    between atoms: _192  and  _193
REMARK   79  A    between atoms: _193  and  _194
REMARK   80  A    between atoms: _197  and  _199
REMARK   81  A    between atoms: _199  and  _200
REMARK   82  A    between atoms: _203  and  _205
REMARK   83  A    between atoms: _205  and  _206
REMARK   84  A    between atoms: _205  and  _208
REMARK   85  A    between atoms: _208  and  _209
REMARK   86  A    between atoms: _212  and  _214
REMARK   87  A    between atoms: _214  and  _215
REMARK   88  A    between atoms: _214  and  _217
REMARK   89  A    between atoms: _217  and  _218
REMARK   90  A    between atoms: _223  and  _225
REMARK   91  A    between atoms: _225  and  _226
REMARK   92  A    between atoms: _228  and  _230
REMARK   93  A    between atoms: _230  and  _231
REMARK   94  A    between atoms: _230  and  _233
REMARK   95  A    between atoms: _233  and  _234
REMARK   96  A    between atoms: _234  and  _235
REMARK   97  A    between atoms: _238  and  _240
REMARK   98  A    between atoms: _240  and  _241
REMARK   99  A    between atoms: _240  and  _243
REMARK  100  A    between atoms: _243  and  _244
REMARK  101  A    between atoms: _249  and  _251
REMARK  102  A    between atoms: _251  and  _252
REMARK  103  A    between atoms: _251  and  _254
REMARK  104  A    between atoms: _257  and  _259
REMARK  105  A    between atoms: _259  and  _260
REMARK  106  A    between atoms: _259  and  _262
REMARK  107  A    between atoms: _262  and  _263
REMARK  108  A    between atoms: _263  and  _264
REMARK  109  A    between atoms: _266  and  _268
REMARK  110  A    between atoms: _268  and  _269
REMARK  111  A    between atoms: _272  and  _274
REMARK  112  A    between atoms: _274  and  _275
REMARK  113  A    between atoms: _274  and  _277
REMARK  114  A    between atoms: _277  and  _278
REMARK  115  A    between atoms: _281  and  _283
REMARK  116  A    between atoms: _283  and  _284
REMARK  117  A    between atoms: _283  and  _286
REMARK  118  A    between atoms: _286  and  _287
REMARK  119  A    between atoms: _290  and  _292
REMARK  120  A    between atoms: _292  and  _293
REMARK  121  A    between atoms: _292  and  _295
REMARK  122  A    between atoms: _295  and  _296
REMARK  123  A    between atoms: _302  and  _304
REMARK  124  A    between atoms: _304  and  _305
REMARK  125  A    between atoms: _308  and  _310
REMARK  126  A    between atoms: _310  and  _311
REMARK  127  A    between atoms: _310  and  _313
REMARK  128  A    between atoms: _313  and  _314
REMARK  129  A    between atoms: _317  and  _319
REMARK  130  A    between atoms: _319  and  _320
REMARK  131  A    between atoms: _319  and  _322
REMARK  132  A    between atoms: _322  and  _323
REMARK  133  A    between atoms: _323  and  _324
REMARK  134  A    between atoms: _324  and  _325
REMARK  135  A    between atoms: _334  and  _336
REMARK  136  A    between atoms: _336  and  _337
REMARK  137  A    between atoms: _336  and  _339
REMARK  138  A    between atoms: _339  and  _340
REMARK  139  A    between atoms: _343  and  _345
REMARK  140  A    between atoms: _345  and  _346
REMARK  141  A    between atoms: _345  and  _348
REMARK  142  A    between atoms: _348  and  _349
REMARK  143  A    between atoms: _349  and  _350
REMARK  144  A    between atoms: _350  and  _351
REMARK  145  A    between atoms: _360  and  _362
REMARK  146  A    between atoms: _362  and  _363
REMARK  147  A    between atoms: _362  and  _365
REMARK  148  A    between atoms: _365  and  _366
REMARK  149  A    between atoms: _371  and  _372
REMARK  150  A    between atoms: _374  and  _376
REMARK  151  A    between atoms: _376  and  _377
REMARK  152  A    between atoms: _376  and  _379
REMARK  153  A    between atoms: _382  and  _384
REMARK  154  A    between atoms: _384  and  _385
REMARK  155  A    between atoms: _388  and  _390
REMARK  156  A    between atoms: _390  and  _391
REMARK  157  A    between atoms: _390  and  _393
REMARK  158  A    between atoms: _393  and  _394
REMARK  159  A    between atoms: _396  and  _398
REMARK  160  A    between atoms: _398  and  _399
REMARK  161  A    between atoms: _398  and  _401
REMARK  162  A    between atoms: _401  and  _402
REMARK  163  A    between atoms: _407  and  _409
REMARK  164  A    between atoms: _409  and  _410
REMARK  165  A    between atoms: _413  and  _415
REMARK  166  A    between atoms: _415  and  _416
REMARK  167  A    between atoms: _419  and  _421
REMARK  168  A    between atoms: _421  and  _422
REMARK  169  A    between atoms: _421  and  _424
REMARK  170  A    between atoms: _424  and  _425
REMARK  171  A    between atoms: _430  and  _431
REMARK  172  A    between atoms: _433  and  _435
REMARK  173  A    between atoms: _435  and  _436
REMARK  174  A    between atoms: _435  and  _438
REMARK  175  A    between atoms: _438  and  _439
REMARK  176  A    between atoms: _441  and  _443
REMARK  177  A    between atoms: _443  and  _444
REMARK  178  A    between atoms: _447  and  _449
REMARK  179  A    between atoms: _449  and  _450
REMARK  180  A    between atoms: _449  and  _452
REMARK  181  A    between atoms: _452  and  _453
REMARK  182  A    between atoms: _453  and  _454
REMARK  183  A    between atoms: _454  and  _455
REMARK  184  A    between atoms: _464  and  _466
REMARK  185  A    between atoms: _466  and  _467
REMARK  186  A    between atoms: _466  and  _469
REMARK  187  A    between atoms: _472  and  _474
REMARK  188  A    between atoms: _474  and  _475
REMARK  189  A    between atoms: _474  and  _477
REMARK  190  A    between atoms: _477  and  _478
REMARK  191  A    between atoms: _478  and  _479
REMARK  192  A    between atoms: _482  and  _484
REMARK  193  A    between atoms: _484  and  _485
REMARK  194  A    between atoms: _484  and  _487
REMARK  195  A    between atoms: _487  and  _488
REMARK  196  A    between atoms: _490  and  _492
REMARK  197  A    between atoms: _492  and  _493
REMARK  198  A    between atoms: _492  and  _495
REMARK  199  A    between atoms: _495  and  _496
REMARK  200  A    between atoms: _496  and  _497
REMARK  201  A    between atoms: _497  and  _498
REMARK  202  A    between atoms: _507  and  _509
REMARK  203  A    between atoms: _509  and  _510
REMARK  204  A    between atoms: _513  and  _515
REMARK  205  A    between atoms: _515  and  _516
REMARK  206  A    between atoms: _515  and  _518
REMARK  207  A    between atoms: _518  and  _519
REMARK  208  A    between atoms: _519  and  _520
REMARK  209  A    between atoms: _520  and  _521
REMARK  210  A    between atoms: _530  and  _532
REMARK  211  A    between atoms: _532  and  _533
REMARK  212  A    between atoms: _532  and  _535
REMARK  213  A    between atoms: _535  and  _536
REMARK  214  A    between atoms: _539  and  _541
REMARK  215  A    between atoms: _541  and  _542
REMARK  216  A    between atoms: _544  and  _546
REMARK  217  A    between atoms: _546  and  _547
REMARK  218  A    between atoms: _546  and  _549
REMARK  219  A    between atoms: _549  and  _550
REMARK  220  A    between atoms: _550  and  _551
REMARK  221  A    between atoms: _551  and  _552
REMARK  222  A    between atoms: _561  and  _563
REMARK  223  A    between atoms: _563  and  _564
REMARK  224  A    between atoms: _567  and  _569
REMARK  225  A    between atoms: _569  and  _570
REMARK  226  A    between atoms: _569  and  _572
REMARK  227  A    between atoms: _572  and  _573
REMARK  228  A    between atoms: _573  and  _574
REMARK  229  A    between atoms: _574  and  _575
REMARK  230  A    between atoms: _584  and  _586
REMARK  231  A    between atoms: _586  and  _587
REMARK  232  A    between atoms: _586  and  _589
REMARK  233  A    between atoms: _589  and  _590
REMARK  234  A    between atoms: _593  and  _595
REMARK  235  A    between atoms: _595  and  _596
REMARK  236  A    between atoms: _595  and  _598
REMARK  237  A    between atoms: _598  and  _599
REMARK  238  A    between atoms: _604  and  _606
REMARK  239  A    between atoms: _606  and  _607
REMARK  240  A    between atoms: _606  and  _609
REMARK  241  A    between atoms: _609  and  _610
REMARK  242  A    between atoms: _615  and  _616
REMARK  243  A    between atoms: _618  and  _620
REMARK  244  A    between atoms: _620  and  _621
REMARK  245  A    between atoms: _620  and  _623
REMARK  246  A    between atoms: _623  and  _624
REMARK  247  A    between atoms: _624  and  _625
REMARK  248  A    between atoms: _625  and  _627
REMARK  249  A    between atoms: _627  and  MG_715
REMARK  250  A    between atoms: _628  and  _630
REMARK  251  A    between atoms: _630  and  _631
REMARK  252  A    between atoms: _630  and  _633
REMARK  253  A    between atoms: _633  and  _634
REMARK  254  A    between atoms: _634  and  _635
REMARK  255  A    between atoms: _635  and  _636
REMARK  256  A    between atoms: _645  and  _647
REMARK  257  A    between atoms: _647  and  _648
REMARK  258  A    between atoms: _647  and  _650
REMARK  259  A    between atoms: _650  and  _651
REMARK  260  A    between atoms: _654  and  _656
REMARK  261  A    between atoms: _656  and  _657
REMARK  262  A    between atoms: _656  and  _659
REMARK  263  A    between atoms: _659  and  _660
REMARK  264  A    between atoms: _663  and  _665
REMARK  265  A    between atoms: _665  and  _666
REMARK  266  A    between atoms: _665  and  _668
REMARK  267  A    between atoms: _668  and  _669
REMARK  268  A    between atoms: _669  and  _670
REMARK  269  A    between atoms: _675  and  _677
REMARK  270  A    between atoms: _677  and  _678
REMARK  271  A    between atoms: _677  and  _680
REMARK  272  A    between atoms: _680  and  _681
REMARK  273  A    between atoms: _684  and  _686
REMARK  274  A    between atoms: _686  and  _687
REMARK  275  A    between atoms: _686  and  _689
REMARK  276  A    between atoms: _689  and  _690
REMARK  277  A    between atoms: _695  and  _696
REMARK  278  A    between atoms: _698  and  _700
REMARK  279  A    between atoms: _700  and  _701
REMARK  280  A    between atoms: _700  and  _703
REMARK  281  A    between atoms: _703  and  _704
REMARK  282  A    between atoms: _704  and  _705
REMARK  283  A    between atoms: _705  and  _706
REMARK                            x       y       z     vdW  Elec       q    Type
REMARK                         _______ _______ _______ _____ _____    ______ ____
ROOT
ATOM      1  CA  ALA A   7      20.589   9.683  -2.324  0.00  0.00    +0.149 C 
ATOM      2  CB  ALA A   7      20.798   8.278  -1.799  0.00  0.00    +0.031 C 
ENDROOT
BRANCH   1   3
ATOM      3  C   ALA A   7      19.698  10.478  -1.373  0.00  0.00    +0.241 C 
ATOM      4  N   LEU A   8      20.280  10.992  -0.287  0.00  0.00    -0.297 N 
ATOM      5  H   LEU A   8      21.292  10.819  -0.119  0.00  0.00    +0.150 HD
ATOM      6  O   ALA A   7      18.506  10.616  -1.620  0.00  0.00    -0.273 OA
BRANCH   4   7
ATOM      7  CA  LEU A   8      19.521  11.792   0.669  0.00  0.00    +0.149 C 
BRANCH   7   8
ATOM      8  C   LEU A   8      19.077  13.084  -0.005  0.00  0.00    +0.241 C 
ATOM      9  O   LEU A   8      18.195  13.769   0.486  0.00  0.00    -0.273 OA
ATOM     10  N   HIS A   9      19.709  13.424  -1.125  0.00  0.00    -0.297 N 
ATOM     11  H   HIS A   9      20.481  12.824  -1.480  0.00  0.00    +0.150 HD
BRANCH  10  12
ATOM     12  CA  HIS A   9      19.335  14.626  -1.863  0.00  0.00    +0.155 C 
BRANCH  12  13
ATOM     13  C   HIS A   9      18.445  14.285  -3.053  0.00  0.00    +0.241 C 
ATOM     14  N   GLY A  10      17.844  13.098  -3.024  0.00  0.00    -0.295 N 
ATOM     15  H   GLY A  10      18.029  12.453  -2.230  0.00  0.00    +0.150 HD
ATOM     16  O   HIS A   9      18.316  15.079  -3.975  0.00  0.00    -0.273 OA
BRANCH  14  17
ATOM     17  CA  GLY A  10      16.936  12.686  -4.079  0.00  0.00    +0.176 C 
BRANCH  17  18
ATOM     18  C   GLY A  10      17.476  11.845  -5.223  0.00  0.00    +0.243 C 
ATOM     19  N   GLU A  11      18.696  11.343  -5.106  0.00  0.00    -0.297 N 
ATOM     20  H   GLU A  11      19.257  11.515  -4.247  0.00  0.00    +0.150 HD
ATOM     21  O   GLY A  10      16.782  11.637  -6.213  0.00  0.00    -0.273 OA
BRANCH  19  22
ATOM     22  CA  GLU A  11      19.240  10.548  -6.196  0.00  0.00    +0.149 C 
BRANCH  22  23
ATOM     23  C   GLU A  11      19.331   9.060  -5.941  0.00  0.00    +0.241 C 
ATOM     24  O   GLU A  11      19.040   8.573  -4.839  0.00  0.00    -0.273 OA
ATOM     25  N   HIS A  12      19.720   8.356  -6.999  0.00  0.00    -0.298 N 
ATOM     26  H   HIS A  12      19.889   8.868  -7.888  0.00  0.00    +0.150 HD
BRANCH  25  27
ATOM     27  CA  HIS A  12      19.926   6.904  -6.995  0.00  0.00    +0.143 C 
BRANCH  27  28
ATOM     28  C   HIS A  12      18.691   6.074  -6.665  0.00  0.00    +0.227 C 
ATOM     29  O   HIS A  12      18.673   5.343  -5.684  0.00  0.00    -0.286 OA
ENDBRANCH  27  28
BRANCH  27  30
ATOM     30  CB  HIS A  12      21.069   6.565  -6.035  0.00  0.00    +0.075 C 
BRANCH  30  31
ATOM     31  CG  HIS A  12      22.250   7.475  -6.168  0.00  0.00    +0.082 A 
ATOM     32  CD2 HIS A  12      22.859   8.285  -5.271  0.00  0.00    +0.115 A 
ATOM     33  NE2 HIS A  12      23.898   8.906  -5.921  0.00  0.00    -0.221 NA
ATOM     34  CE1 HIS A  12      23.928   8.492  -7.175  0.00  0.00    +0.199 A 
ATOM     35  ND1 HIS A  12      22.943   7.628  -7.349  0.00  0.00    -0.227 NA
ENDBRANCH  30  31
ENDBRANCH  27  30
ENDBRANCH  25  27
ENDBRANCH  22  23
BRANCH  22  36
ATOM     36  CB  GLU A  11      20.617  11.058  -6.581  0.00  0.00    +0.041 C 
BRANCH  36  37
ATOM     37  CG  GLU A  11      20.632  12.529  -6.829  0.00  0.00    +0.116 C 
BRANCH  37  38
ATOM     38  CD  GLU A  11      21.691  12.911  -7.809  0.00  0.00    +0.365 C 
ATOM     39  OE2 GLU A  11      22.698  13.515  -7.389  0.00  0.00    -0.246 OA
ATOM     40  OE1 GLU A  11      21.515  12.594  -9.002  0.00  0.00    -0.246 OA
ENDBRANCH  37  38
ENDBRANCH  36  37
ENDBRANCH  22  36
ENDBRANCH  19  22
ENDBRANCH  17  18
ENDBRANCH  14  17
ENDBRANCH  12  13
BRANCH  12  41
ATOM     41  CB  HIS A   9      20.569  15.404  -2.338  0.00  0.00    +0.076 C 
BRANCH  41  42
ATOM     42  CG  HIS A   9      21.124  16.342  -1.312  0.00  0.00    +0.082 A 
ATOM     43  ND1 HIS A   9      21.756  15.908  -0.167  0.00  0.00    -0.227 NA
ATOM     44  CE1 HIS A   9      22.113  16.953   0.559  0.00  0.00    +0.199 A 
ATOM     45  NE2 HIS A   9      21.737  18.048  -0.074  0.00  0.00    -0.221 NA
ATOM     46  CD2 HIS A   9      21.117  17.695  -1.246  0.00  0.00    +0.115 A 
ENDBRANCH  41  42
ENDBRANCH  12  41
ENDBRANCH  10  12
ENDBRANCH   7   8
BRANCH   7  47
ATOM     47  CB  LEU A   8      20.355  12.136   1.902  0.00  0.00    +0.029 C 
BRANCH  47  48
ATOM     48  CG  LEU A   8      20.721  11.049   2.907  0.00  0.00    +0.002 C 
ATOM     49  CD2 LEU A   8      21.472  11.686   4.046  0.00  0.00    +0.000 C 
ATOM     50  CD1 LEU A   8      19.475  10.359   3.420  0.00  0.00    +0.000 C 
ENDBRANCH  47  48
ENDBRANCH   7  47
ENDBRANCH   4   7
ENDBRANCH   1   3
BRANCH   1  52
ATOM     51  C   GLU A   6      21.940  11.588  -3.012  0.00  0.00    +0.241 C 
ATOM     52  N   ALA A   7      21.856  10.383  -2.444  0.00  0.00    -0.297 N 
ATOM     53  H   ALA A   7      22.720   9.934  -2.078  0.00  0.00    +0.150 HD
ATOM     54  O   GLU A   6      20.972  12.189  -3.491  0.00  0.00    -0.273 OA
BRANCH  51  55
ATOM     55  CA  GLU A   6      23.325  12.215  -3.029  0.00  0.00    +0.149 C 
BRANCH  55  58
ATOM     56  C   ALA A   5      23.451  12.239  -0.638  0.00  0.00    +0.241 C 
ATOM     57  O   ALA A   5      22.441  12.927  -0.575  0.00  0.00    -0.273 OA
ATOM     58  N   GLU A   6      23.971  11.849  -1.787  0.00  0.00    -0.297 N 
ATOM     59  H   GLU A   6      24.842  11.281  -1.799  0.00  0.00    +0.150 HD
BRANCH  56  60
ATOM     60  CA  ALA A   5      24.181  11.807   0.617  0.00  0.00    +0.149 C 
ATOM     61  CB  ALA A   5      25.308  12.786   0.914  0.00  0.00    +0.031 C 
BRANCH  60  64
ATOM     62  C   ALA A   4      23.906   9.376   0.614  0.00  0.00    +0.241 C 
ATOM     63  O   ALA A   4      22.686   9.455   0.744  0.00  0.00    -0.273 OA
ATOM     64  N   ALA A   5      24.701  10.443   0.531  0.00  0.00    -0.297 N 
ATOM     65  H   ALA A   5      25.723  10.301   0.401  0.00  0.00    +0.150 HD
BRANCH  62  66
ATOM     66  CA  ALA A   4      24.581   8.006   0.535  0.00  0.00    +0.149 C 
ATOM     67  CB  ALA A   4      25.242   7.675   1.867  0.00  0.00    +0.031 C 
BRANCH  66  69
ATOM     68  C   ILE A   3      25.162   8.004  -1.808  0.00  0.00    +0.241 C 
ATOM     69  N   ALA A   4      25.558   7.943  -0.544  0.00  0.00    -0.297 N 
ATOM     70  H   ALA A   4      26.570   7.850  -0.322  0.00  0.00    +0.150 HD
ATOM     71  O   ILE A   3      23.975   8.119  -2.125  0.00  0.00    -0.273 OA
BRANCH  68  72
ATOM     72  CA  ILE A   3      26.261   7.926  -2.871  0.00  0.00    +0.149 C 
BRANCH  72  75
ATOM     73  C   ASP A   2      27.532   9.836  -2.109  0.00  0.00    +0.241 C 
ATOM     74  O   ASP A   2      26.584  10.604  -2.281  0.00  0.00    -0.273 OA
ATOM     75  N   ILE A   3      27.473   8.533  -2.367  0.00  0.00    -0.297 N 
ATOM     76  H   ILE A   3      28.312   7.941  -2.204  0.00  0.00    +0.150 HD
BRANCH  73  77
ATOM     77  CA  ASP A   2      28.847  10.355  -1.565  0.00  0.00    +0.160 C 
BRANCH  77  80
ATOM     78  C   ALA A   1      28.828   9.346   0.640  0.00  0.00    +0.238 C 
ATOM     79  O   ALA A   1      27.825   9.976   0.988  0.00  0.00    -0.274 OA
ATOM     80  N   ASP A   2      29.383   9.452  -0.562  0.00  0.00    -0.297 N 
ATOM     81  H   ASP A   2      30.219   8.876  -0.790  0.00  0.00    +0.150 HD
BRANCH  78  82
ATOM     82  CA  ALA A   1      29.497   8.371   1.579  0.00  0.00    +0.145 C 
ATOM     83  CB  ALA A   1      30.685   9.033   2.242  0.00  0.00    +0.028 C 
BRANCH  82  84
ATOM     84  N   ALA A   1      29.927   7.199   0.813  0.00  0.00    -0.238 NA
ATOM     85  H   ALA A   1      30.944   7.042   0.659  0.00  0.00    +0.142 HD
ENDBRANCH  82  84
ENDBRANCH  78  82
ENDBRANCH  77  80
BRANCH  77  86
ATOM     86  CB  ASP A   2      29.852  10.565  -2.699  0.00  0.00    +0.143 C 
BRANCH  86  87
ATOM     87  CG  ASP A   2      31.098  11.309  -2.239  0.00  0.00    +0.367 C 
ATOM     88  OD2 ASP A   2      30.994  12.088  -1.270  0.00  0.00    -0.246 OA
ATOM     89  OD1 ASP A   2      32.172  11.121  -2.851  0.00  0.00    -0.246 OA
ENDBRANCH  86  87
ENDBRANCH  77  86
ENDBRANCH  73  77
ENDBRANCH  72  75
BRANCH  72  90
ATOM     90  CB  ILE A   3      26.502   6.450  -3.258  0.00  0.00    +0.027 C 
ATOM     91  CG2 ILE A   3      25.186   5.789  -3.661  0.00  0.00    +0.002 C 
BRANCH  90  92
ATOM     92  CG1 ILE A   3      27.518   6.381  -4.405  0.00  0.00    +0.002 C 
ATOM     93  CD1 ILE A   3      27.751   4.993  -4.953  0.00  0.00    +0.000 C 
ENDBRANCH  90  92
ENDBRANCH  72  90
ENDBRANCH  68  72
ENDBRANCH  66  69
ENDBRANCH  62  66
ENDBRANCH  60  64
ENDBRANCH  56  60
ENDBRANCH  55  58
BRANCH  55  94
ATOM     94  CB  GLU A   6      24.141  11.706  -4.205  0.00  0.00    +0.041 C 
BRANCH  94  95
ATOM     95  CG  GLU A   6      25.527  12.314  -4.256  0.00  0.00    +0.116 C 
BRANCH  95  96
ATOM     96  CD  GLU A   6      26.431  11.628  -5.247  0.00  0.00    +0.365 C 
ATOM     97  OE2 GLU A   6      27.560  12.112  -5.428  0.00  0.00    -0.246 OA
ATOM     98  OE1 GLU A   6      26.018  10.610  -5.839  0.00  0.00    -0.246 OA
ENDBRANCH  95  96
ENDBRANCH  94  95
ENDBRANCH  55  94
ENDBRANCH  51  55
ENDBRANCH   1  52
TORSDOF 40
REMARK  Name = ../refined-set-2016/1mrn/1mrn_pocket.pdb
REMARK  283 active torsions:
REMARK  status: ('A' for Active; 'I' for Inactive)
REMARK    1  A    between atoms: _1  and  _3
REMARK    2  A    between atoms: _3  and  _4
REMARK    3  A    between atoms: _3  and  _6
REMARK    4  A    between atoms: _6  and  _7
REMARK    5  A    between atoms: _7  and  _8
REMARK    6  A    between atoms: _11  and  _13
REMARK    7  A    between atoms: _13  and  _14
REMARK    8  A    between atoms: _16  and  _18
REMARK    9  A    between atoms: _18  and  _19
REMARK   10  A    between atoms: _18  and  _21
REMARK   11  A    between atoms: _24  and  _26
REMARK   12  A    between atoms: _26  and  _27
REMARK   13  A    between atoms: _26  and  _29
REMARK   14  A    between atoms: _29  and  _30
REMARK   15  A    between atoms: _30  and  _31
REMARK   16  A    between atoms: _31  and  MG_715
REMARK   17  A    between atoms: _33  and  _35
REMARK   18  A    between atoms: _35  and  _36
REMARK   19  A    between atoms: _38  and  _40
REMARK   20  A    between atoms: _40  and  _41
REMARK   21  A    between atoms: _44  and  _46
REMARK   22  A    between atoms: _46  and  _47
REMARK   23  A    between atoms: _46  and  _49
REMARK   24  A    between atoms: _49  and  _50
REMARK   25  A    between atoms: _50  and  _51
REMARK   26  A    between atoms: _51  and  _52
REMARK   27  A    between atoms: _52  and  _53
REMARK   28  A    between atoms: _57  and  _59
REMARK   29  A    between atoms: _59  and  _60
REMARK   30  A    between atoms: _59  and  _62
REMARK   31  A    between atoms: _62  and  _63
REMARK   32  A    between atoms: _63  and  _64
REMARK   33  A    between atoms: _64  and  _65
REMARK   34  A    between atoms: _74  and  _76
REMARK   35  A    between atoms: _76  and  _77
REMARK   36  A    between atoms: _80  and  _82
REMARK   37  A    between atoms: _82  and  _83
REMARK   38  A    between atoms: _82  and  _85
REMARK   39  A    between atoms: _85  and  _86
REMARK   40  A    between atoms: _93  and  _94
REMARK   41  A    between atoms: _99  and  _101
REMARK   42  A    between atoms: _101  and  _102
REMARK   43  A    between atoms: _101  and  _104
REMARK   44  A    between atoms: _104  and  _105
REMARK   45  A    between atoms: _105  and  _106
REMARK   46  A    between atoms: _106  and  _107
REMARK   47  A    between atoms: _116  and  _118
REMARK   48  A    between atoms: _118  and  _119
REMARK   49  A    between atoms: _118  and  _121
REMARK   50  A    between atoms: _121  and  _122
REMARK   51  A    between atoms: _127  and  _128
REMARK   52  A    between atoms: _130  and  _132
REMARK   53  A    between atoms: _132  and  _133
REMARK   54  A    between atoms: _135  and  _137
REMARK   55  A    between atoms: _137  and  _138
REMARK   56  A    between atoms: _137  and  _140
REMARK   57  A    between atoms: _140  and  _141
REMARK   58  A    between atoms: _143  and  _145
REMARK   59  A    between atoms: _145  and  _146
REMARK   60  A    between atoms: _145  and  _148
REMARK   61  A    between atoms: _151  and  _153
REMARK   62  A    between atoms: _153  and  _154
REMARK   63  A    between atoms: _157  and  _159
REMARK   64  A    between atoms: _159  and  _160
REMARK   65  A    between atoms: _159  and  _162
REMARK   66  A    between atoms: _162  and  _163
REMARK   67  A    between atoms: _166  and  _168
REMARK   68  A    between atoms: _168  and  _169
REMARK   69  A    between atoms: _168  and  _171
REMARK   70  A    between atoms: _171  and  _172
REMARK   71  A    between atoms: _175  and  _177
REMARK   72  A    between atoms: _177  and  _178
REMARK   73  A    between atoms: _181  and  _183
REMARK   74  A    between atoms: _183  and  _184
REMARK   75  A    between atoms: _187  and  _189
REMARK   76  A    between atoms: _189  and  _190
REMARK   77  A    between atoms: _189  and  _192
REMARK   78  A    between atoms: _192  and  _193
REMARK   79  A    between atoms: _193  and  _194
REMARK   80  A    between atoms: _197  and  _199
REMARK   81  A    between atoms: _199  and  _200
REMARK   82  A    between atoms: _203  and  _205
REMARK   83  A    between atoms: _205  and  _206
REMARK   84  A    between atoms: _205  and  _208
REMARK   85  A    between atoms: _208  and  _209
REMARK   86  A    between atoms: _212  and  _214
REMARK   87  A    between atoms: _214  and  _215
REMARK   88  A    between atoms: _214  and  _217
REMARK   89  A    between atoms: _217  and  _218
REMARK   90  A    between atoms: _223  and  _225
REMARK   91  A    between atoms: _225  and  _226
REMARK   92  A    between atoms: _228  and  _230
REMARK   93  A    between atoms: _230  and  _231
REMARK   94  A    between atoms: _230  and  _233
REMARK   95  A    between atoms: _233  and  _234
REMARK   96  A    between atoms: _234  and  _235
REMARK   97  A    between atoms: _238  and  _240
REMARK   98  A    between atoms: _240  and  _241
REMARK   99  A    between atoms: _240  and  _243
REMARK  100  A    between atoms: _243  and  _244
REMARK  101  A    between atoms: _249  and  _251
REMARK  102  A    between atoms: _251  and  _252
REMARK  103  A    between atoms: _251  and  _254
REMARK  104  A    between atoms: _257  and  _259
REMARK  105  A    between atoms: _259  and  _260
REMARK  106  A    between atoms: _259  and  _262
REMARK  107  A    between atoms: _262  and  _263
REMARK  108  A    between atoms: _263  and  _264
REMARK  109  A    between atoms: _266  and  _268
REMARK  110  A    between atoms: _268  and  _269
REMARK  111  A    between atoms: _272  and  _274
REMARK  112  A    between atoms: _274  and  _275
REMARK  113  A    between atoms: _274  and  _277
REMARK  114  A    between atoms: _277  and  _278
REMARK  115  A    between atoms: _281  and  _283
REMARK  116  A    between atoms: _283  and  _284
REMARK  117  A    between atoms: _283  and  _286
REMARK  118  A    between atoms: _286  and  _287
REMARK  119  A    between atoms: _290  and  _292
REMARK  120  A    between atoms: _292  and  _293
REMARK  121  A    between atoms: _292  and  _295
REMARK  122  A    between atoms: _295  and  _296
REMARK  123  A    between atoms: _302  and  _304
REMARK  124  A    between atoms: _304  and  _305
REMARK  125  A    between atoms: _308  and  _310
REMARK  126  A    between atoms: _310  and  _311
REMARK  127  A    between atoms: _310  and  _313
REMARK  128  A    between atoms: _313  and  _314
REMARK  129  A    between atoms: _317  and  _319
REMARK  130  A    between atoms: _319  and  _320
REMARK  131  A    between atoms: _319  and  _322
REMARK  132  A    between atoms: _322  and  _323
REMARK  133  A    between atoms: _323  and  _324
REMARK  134  A    between atoms: _324  and  _325
REMARK  135  A    between atoms: _334  and  _336
REMARK  136  A    between atoms: _336  and  _337
REMARK  137  A    between atoms: _336  and  _339
REMARK  138  A    between atoms: _339  and  _340
REMARK  139  A    between atoms: _343  and  _345
REMARK  140  A    between atoms: _345  and  _346
REMARK  141  A    between atoms: _345  and  _348
REMARK  142  A    between atoms: _348  and  _349
REMARK  143  A    between atoms: _349  and  _350
REMARK  144  A    between atoms: _350  and  _351
REMARK  145  A    between atoms: _360  and  _362
REMARK  146  A    between atoms: _362  and  _363
REMARK  147  A    between atoms: _362  and  _365
REMARK  148  A    between atoms: _365  and  _366
REMARK  149  A    between atoms: _371  and  _372
REMARK  150  A    between atoms: _374  and  _376
REMARK  151  A    between atoms: _376  and  _377
REMARK  152  A    between atoms: _376  and  _379
REMARK  153  A    between atoms: _382  and  _384
REMARK  154  A    between atoms: _384  and  _385
REMARK  155  A    between atoms: _388  and  _390
REMARK  156  A    between atoms: _390  and  _391
REMARK  157  A    between atoms: _390  and  _393
REMARK  158  A    between atoms: _393  and  _394
REMARK  159  A    between atoms: _396  and  _398
REMARK  160  A    between atoms: _398  and  _399
REMARK  161  A    between atoms: _398  and  _401
REMARK  162  A    between atoms: _401  and  _402
REMARK  163  A    between atoms: _407  and  _409
REMARK  164  A    between atoms: _409  and  _410
REMARK  165  A    between atoms: _413  and  _415
REMARK  166  A    between atoms: _415  and  _416
REMARK  167  A    between atoms: _419  and  _421
REMARK  168  A    between atoms: _421  and  _422
REMARK  169  A    between atoms: _421  and  _424
REMARK  170  A    between atoms: _424  and  _425
REMARK  171  A    between atoms: _430  and  _431
REMARK  172  A    between atoms: _433  and  _435
REMARK  173  A    between atoms: _435  and  _436
REMARK  174  A    between atoms: _435  and  _438
REMARK  175  A    between atoms: _438  and  _439
REMARK  176  A    between atoms: _441  and  _443
REMARK  177  A    between atoms: _443  and  _444
REMARK  178  A    between atoms: _447  and  _449
REMARK  179  A    between atoms: _449  and  _450
REMARK  180  A    between atoms: _449  and  _452
REMARK  181  A    between atoms: _452  and  _453
REMARK  182  A    between atoms: _453  and  _454
REMARK  183  A    between atoms: _454  and  _455
REMARK  184  A    between atoms: _464  and  _466
REMARK  185  A    between atoms: _466  and  _467
REMARK  186  A    between atoms: _466  and  _469
REMARK  187  A    between atoms: _472  and  _474
REMARK  188  A    between atoms: _474  and  _475
REMARK  189  A    between atoms: _474  and  _477
REMARK  190  A    between atoms: _477  and  _478
REMARK  191  A    between atoms: _478  and  _479
REMARK  192  A    between atoms: _482  and  _484
REMARK  193  A    between atoms: _484  and  _485
REMARK  194  A    between atoms: _484  and  _487
REMARK  195  A    between atoms: _487  and  _488
REMARK  196  A    between atoms: _490  and  _492
REMARK  197  A    between atoms: _492  and  _493
REMARK  198  A    between atoms: _492  and  _495
REMARK  199  A    between atoms: _495  and  _496
REMARK  200  A    between atoms: _496  and  _497
REMARK  201  A    between atoms: _497  and  _498
REMARK  202  A    between atoms: _507  and  _509
REMARK  203  A    between atoms: _509  and  _510
REMARK  204  A    between atoms: _513  and  _515
REMARK  205  A    between atoms: _515  and  _516
REMARK  206  A    between atoms: _515  and  _518
REMARK  207  A    between atoms: _518  and  _519
REMARK  208  A    between atoms: _519  and  _520
REMARK  209  A    between atoms: _520  and  _521
REMARK  210  A    between atoms: _530  and  _532
REMARK  211  A    between atoms: _532  and  _533
REMARK  212  A    between atoms: _532  and  _535
REMARK  213  A    between atoms: _535  and  _536
REMARK  214  A    between atoms: _539  and  _541
REMARK  215  A    between atoms: _541  and  _542
REMARK  216  A    between atoms: _544  and  _546
REMARK  217  A    between atoms: _546  and  _547
REMARK  218  A    between atoms: _546  and  _549
REMARK  219  A    between atoms: _549  and  _550
REMARK  220  A    between atoms: _550  and  _551
REMARK  221  A    between atoms: _551  and  _552
REMARK  222  A    between atoms: _561  and  _563
REMARK  223  A    between atoms: _563  and  _564
REMARK  224  A    between atoms: _567  and  _569
REMARK  225  A    between atoms: _569  and  _570
REMARK  226  A    between atoms: _569  and  _572
REMARK  227  A    between atoms: _572  and  _573
REMARK  228  A    between atoms: _573  and  _574
REMARK  229  A    between atoms: _574  and  _575
REMARK  230  A    between atoms: _584  and  _586
REMARK  231  A    between atoms: _586  and  _587
REMARK  232  A    between atoms: _586  and  _589
REMARK  233  A    between atoms: _589  and  _590
REMARK  234  A    between atoms: _593  and  _595
REMARK  235  A    between atoms: _595  and  _596
REMARK  236  A    between atoms: _595  and  _598
REMARK  237  A    between atoms: _598  and  _599
REMARK  238  A    between atoms: _604  and  _606
REMARK  239  A    between atoms: _606  and  _607
REMARK  240  A    between atoms: _606  and  _609
REMARK  241  A    between atoms: _609  and  _610
REMARK  242  A    between atoms: _615  and  _616
REMARK  243  A    between atoms: _618  and  _620
REMARK  244  A    between atoms: _620  and  _621
REMARK  245  A    between atoms: _620  and  _623
REMARK  246  A    between atoms: _623  and  _624
REMARK  247  A    between atoms: _624  and  _625
REMARK  248  A    between atoms: _625  and  _627
REMARK  249  A    between atoms: _627  and  MG_715
REMARK  250  A    between atoms: _628  and  _630
REMARK  251  A    between atoms: _630  and  _631
REMARK  252  A    between atoms: _630  and  _633
REMARK  253  A    between atoms: _633  and  _634
REMARK  254  A    between atoms: _634  and  _635
REMARK  255  A    between atoms: _635  and  _636
REMARK  256  A    between atoms: _645  and  _647
REMARK  257  A    between atoms: _647  and  _648
REMARK  258  A    between atoms: _647  and  _650
REMARK  259  A    between atoms: _650  and  _651
REMARK  260  A    between atoms: _654  and  _656
REMARK  261  A    between atoms: _656  and  _657
REMARK  262  A    between atoms: _656  and  _659
REMARK  263  A    between atoms: _659  and  _660
REMARK  264  A    between atoms: _663  and  _665
REMARK  265  A    between atoms: _665  and  _666
REMARK  266  A    between atoms: _665  and  _668
REMARK  267  A    between atoms: _668  and  _669
REMARK  268  A    between atoms: _669  and  _670
REMARK  269  A    between atoms: _675  and  _677
REMARK  270  A    between atoms: _677  and  _678
REMARK  271  A    between atoms: _677  and  _680
REMARK  272  A    between atoms: _680  and  _681
REMARK  273  A    between atoms: _684  and  _686
REMARK  274  A    between atoms: _686  and  _687
REMARK  275  A    between atoms: _686  and  _689
REMARK  276  A    between atoms: _689  and  _690
REMARK  277  A    between atoms: _695  and  _696
REMARK  278  A    between atoms: _698  and  _700
REMARK  279  A    between atoms: _700  and  _701
REMARK  280  A    between atoms: _700  and  _703
REMARK  281  A    between atoms: _703  and  _704
REMARK  282  A    between atoms: _704  and  _705
REMARK  283  A    between atoms: _705  and  _706
REMARK                            x       y       z     vdW  Elec       q    Type
REMARK                         _______ _______ _______ _____ _____    ______ ____
ROOT
ATOM      1  CA  VAL A   1      17.001   2.337   6.245  0.00  0.00    +0.133 C 
ENDROOT
BRANCH   1   2
ATOM      2  CB  VAL A   1      16.146   2.064   7.490  0.00  0.00    +0.023 C 
ATOM      3  CG2 VAL A   1      16.797   2.660   8.710  0.00  0.00    +0.002 C 
ATOM      4  CG1 VAL A   1      14.748   2.637   7.297  0.00  0.00    +0.002 C 
ENDBRANCH   1   2
BRANCH   1   5
ATOM      5  N   VAL A   1      16.270   1.965   5.037  0.00  0.00    -0.239 NA
ATOM      6  H   VAL A   1      15.270   1.692   5.122  0.00  0.00    +0.142 HD
ENDBRANCH   1   5
BRANCH   1   7
ATOM      7  C   VAL A   1      18.335   1.592   6.402  0.00  0.00    +0.224 C 
ATOM      8  O   VAL A   1      19.349   2.186   6.783  0.00  0.00    -0.287 OA
ENDBRANCH   1   7
TORSDOF 3
REMARK  Name = ../refined-set-2016/1mrn/1mrn_pocket.pdb
REMARK  283 active torsions:
REMARK  status: ('A' for Active; 'I' for Inactive)
REMARK    1  A    between atoms: _1  and  _3
REMARK    2  A    between atoms: _3  and  _4
REMARK    3  A    between atoms: _3  and  _6
REMARK    4  A    between atoms: _6  and  _7
REMARK    5  A    between atoms: _7  and  _8
REMARK    6  A    between atoms: _11  and  _13
REMARK    7  A    between atoms: _13  and  _14
REMARK    8  A    between atoms: _16  and  _18
REMARK    9  A    between atoms: _18  and  _19
REMARK   10  A    between atoms: _18  and  _21
REMARK   11  A    between atoms: _24  and  _26
REMARK   12  A    between atoms: _26  and  _27
REMARK   13  A    between atoms: _26  and  _29
REMARK   14  A    between atoms: _29  and  _30
REMARK   15  A    between atoms: _30  and  _31
REMARK   16  A    between atoms: _31  and  MG_715
REMARK   17  A    between atoms: _33  and  _35
REMARK   18  A    between atoms: _35  and  _36
REMARK   19  A    between atoms: _38  and  _40
REMARK   20  A    between atoms: _40  and  _41
REMARK   21  A    between atoms: _44  and  _46
REMARK   22  A    between atoms: _46  and  _47
REMARK   23  A    between atoms: _46  and  _49
REMARK   24  A    between atoms: _49  and  _50
REMARK   25  A    between atoms: _50  and  _51
REMARK   26  A    between atoms: _51  and  _52
REMARK   27  A    between atoms: _52  and  _53
REMARK   28  A    between atoms: _57  and  _59
REMARK   29  A    between atoms: _59  and  _60
REMARK   30  A    between atoms: _59  and  _62
REMARK   31  A    between atoms: _62  and  _63
REMARK   32  A    between atoms: _63  and  _64
REMARK   33  A    between atoms: _64  and  _65
REMARK   34  A    between atoms: _74  and  _76
REMARK   35  A    between atoms: _76  and  _77
REMARK   36  A    between atoms: _80  and  _82
REMARK   37  A    between atoms: _82  and  _83
REMARK   38  A    between atoms: _82  and  _85
REMARK   39  A    between atoms: _85  and  _86
REMARK   40  A    between atoms: _93  and  _94
REMARK   41  A    between atoms: _99  and  _101
REMARK   42  A    between atoms: _101  and  _102
REMARK   43  A    between atoms: _101  and  _104
REMARK   44  A    between atoms: _104  and  _105
REMARK   45  A    between atoms: _105  and  _106
REMARK   46  A    between atoms: _106  and  _107
REMARK   47  A    between atoms: _116  and  _118
REMARK   48  A    between atoms: _118  and  _119
REMARK   49  A    between atoms: _118  and  _121
REMARK   50  A    between atoms: _121  and  _122
REMARK   51  A    between atoms: _127  and  _128
REMARK   52  A    between atoms: _130  and  _132
REMARK   53  A    between atoms: _132  and  _133
REMARK   54  A    between atoms: _135  and  _137
REMARK   55  A    between atoms: _137  and  _138
REMARK   56  A    between atoms: _137  and  _140
REMARK   57  A    between atoms: _140  and  _141
REMARK   58  A    between atoms: _143  and  _145
REMARK   59  A    between atoms: _145  and  _146
REMARK   60  A    between atoms: _145  and  _148
REMARK   61  A    between atoms: _151  and  _153
REMARK   62  A    between atoms: _153  and  _154
REMARK   63  A    between atoms: _157  and  _159
REMARK   64  A    between atoms: _159  and  _160
REMARK   65  A    between atoms: _159  and  _162
REMARK   66  A    between atoms: _162  and  _163
REMARK   67  A    between atoms: _166  and  _168
REMARK   68  A    between atoms: _168  and  _169
REMARK   69  A    between atoms: _168  and  _171
REMARK   70  A    between atoms: _171  and  _172
REMARK   71  A    between atoms: _175  and  _177
REMARK   72  A    between atoms: _177  and  _178
REMARK   73  A    between atoms: _181  and  _183
REMARK   74  A    between atoms: _183  and  _184
REMARK   75  A    between atoms: _187  and  _189
REMARK   76  A    between atoms: _189  and  _190
REMARK   77  A    between atoms: _189  and  _192
REMARK   78  A    between atoms: _192  and  _193
REMARK   79  A    between atoms: _193  and  _194
REMARK   80  A    between atoms: _197  and  _199
REMARK   81  A    between atoms: _199  and  _200
REMARK   82  A    between atoms: _203  and  _205
REMARK   83  A    between atoms: _205  and  _206
REMARK   84  A    between atoms: _205  and  _208
REMARK   85  A    between atoms: _208  and  _209
REMARK   86  A    between atoms: _212  and  _214
REMARK   87  A    between atoms: _214  and  _215
REMARK   88  A    between atoms: _214  and  _217
REMARK   89  A    between atoms: _217  and  _218
REMARK   90  A    between atoms: _223  and  _225
REMARK   91  A    between atoms: _225  and  _226
REMARK   92  A    between atoms: _228  and  _230
REMARK   93  A    between atoms: _230  and  _231
REMARK   94  A    between atoms: _230  and  _233
REMARK   95  A    between atoms: _233  and  _234
REMARK   96  A    between atoms: _234  and  _235
REMARK   97  A    between atoms: _238  and  _240
REMARK   98  A    between atoms: _240  and  _241
REMARK   99  A    between atoms: _240  and  _243
REMARK  100  A    between atoms: _243  and  _244
REMARK  101  A    between atoms: _249  and  _251
REMARK  102  A    between atoms: _251  and  _252
REMARK  103  A    between atoms: _251  and  _254
REMARK  104  A    between atoms: _257  and  _259
REMARK  105  A    between atoms: _259  and  _260
REMARK  106  A    between atoms: _259  and  _262
REMARK  107  A    between atoms: _262  and  _263
REMARK  108  A    between atoms: _263  and  _264
REMARK  109  A    between atoms: _266  and  _268
REMARK  110  A    between atoms: _268  and  _269
REMARK  111  A    between atoms: _272  and  _274
REMARK  112  A    between atoms: _274  and  _275
REMARK  113  A    between atoms: _274  and  _277
REMARK  114  A    between atoms: _277  and  _278
REMARK  115  A    between atoms: _281  and  _283
REMARK  116  A    between atoms: _283  and  _284
REMARK  117  A    between atoms: _283  and  _286
REMARK  118  A    between atoms: _286  and  _287
REMARK  119  A    between atoms: _290  and  _292
REMARK  120  A    between atoms: _292  and  _293
REMARK  121  A    between atoms: _292  and  _295
REMARK  122  A    between atoms: _295  and  _296
REMARK  123  A    between atoms: _302  and  _304
REMARK  124  A    between atoms: _304  and  _305
REMARK  125  A    between atoms: _308  and  _310
REMARK  126  A    between atoms: _310  and  _311
REMARK  127  A    between atoms: _310  and  _313
REMARK  128  A    between atoms: _313  and  _314
REMARK  129  A    between atoms: _317  and  _319
REMARK  130  A    between atoms: _319  and  _320
REMARK  131  A    between atoms: _319  and  _322
REMARK  132  A    between atoms: _322  and  _323
REMARK  133  A    between atoms: _323  and  _324
REMARK  134  A    between atoms: _324  and  _325
REMARK  135  A    between atoms: _334  and  _336
REMARK  136  A    between atoms: _336  and  _337
REMARK  137  A    between atoms: _336  and  _339
REMARK  138  A    between atoms: _339  and  _340
REMARK  139  A    between atoms: _343  and  _345
REMARK  140  A    between atoms: _345  and  _346
REMARK  141  A    between atoms: _345  and  _348
REMARK  142  A    between atoms: _348  and  _349
REMARK  143  A    between atoms: _349  and  _350
REMARK  144  A    between atoms: _350  and  _351
REMARK  145  A    between atoms: _360  and  _362
REMARK  146  A    between atoms: _362  and  _363
REMARK  147  A    between atoms: _362  and  _365
REMARK  148  A    between atoms: _365  and  _366
REMARK  149  A    between atoms: _371  and  _372
REMARK  150  A    between atoms: _374  and  _376
REMARK  151  A    between atoms: _376  and  _377
REMARK  152  A    between atoms: _376  and  _379
REMARK  153  A    between atoms: _382  and  _384
REMARK  154  A    between atoms: _384  and  _385
REMARK  155  A    between atoms: _388  and  _390
REMARK  156  A    between atoms: _390  and  _391
REMARK  157  A    between atoms: _390  and  _393
REMARK  158  A    between atoms: _393  and  _394
REMARK  159  A    between atoms: _396  and  _398
REMARK  160  A    between atoms: _398  and  _399
REMARK  161  A    between atoms: _398  and  _401
REMARK  162  A    between atoms: _401  and  _402
REMARK  163  A    between atoms: _407  and  _409
REMARK  164  A    between atoms: _409  and  _410
REMARK  165  A    between atoms: _413  and  _415
REMARK  166  A    between atoms: _415  and  _416
REMARK  167  A    between atoms: _419  and  _421
REMARK  168  A    between atoms: _421  and  _422
REMARK  169  A    between atoms: _421  and  _424
REMARK  170  A    between atoms: _424  and  _425
REMARK  171  A    between atoms: _430  and  _431
REMARK  172  A    between atoms: _433  and  _435
REMARK  173  A    between atoms: _435  and  _436
REMARK  174  A    between atoms: _435  and  _438
REMARK  175  A    between atoms: _438  and  _439
REMARK  176  A    between atoms: _441  and  _443
REMARK  177  A    between atoms: _443  and  _444
REMARK  178  A    between atoms: _447  and  _449
REMARK  179  A    between atoms: _449  and  _450
REMARK  180  A    between atoms: _449  and  _452
REMARK  181  A    between atoms: _452  and  _453
REMARK  182  A    between atoms: _453  and  _454
REMARK  183  A    between atoms: _454  and  _455
REMARK  184  A    between atoms: _464  and  _466
REMARK  185  A    between atoms: _466  and  _467
REMARK  186  A    between atoms: _466  and  _469
REMARK  187  A    between atoms: _472  and  _474
REMARK  188  A    between atoms: _474  and  _475
REMARK  189  A    between atoms: _474  and  _477
REMARK  190  A    between atoms: _477  and  _478
REMARK  191  A    between atoms: _478  and  _479
REMARK  192  A    between atoms: _482  and  _484
REMARK  193  A    between atoms: _484  and  _485
REMARK  194  A    between atoms: _484  and  _487
REMARK  195  A    between atoms: _487  and  _488
REMARK  196  A    between atoms: _490  and  _492
REMARK  197  A    between atoms: _492  and  _493
REMARK  198  A    between atoms: _492  and  _495
REMARK  199  A    between atoms: _495  and  _496
REMARK  200  A    between atoms: _496  and  _497
REMARK  201  A    between atoms: _497  and  _498
REMARK  202  A    between atoms: _507  and  _509
REMARK  203  A    between atoms: _509  and  _510
REMARK  204  A    between atoms: _513  and  _515
REMARK  205  A    between atoms: _515  and  _516
REMARK  206  A    between atoms: _515  and  _518
REMARK  207  A    between atoms: _518  and  _519
REMARK  208  A    between atoms: _519  and  _520
REMARK  209  A    between atoms: _520  and  _521
REMARK  210  A    between atoms: _530  and  _532
REMARK  211  A    between atoms: _532  and  _533
REMARK  212  A    between atoms: _532  and  _535
REMARK  213  A    between atoms: _535  and  _536
REMARK  214  A    between atoms: _539  and  _541
REMARK  215  A    between atoms: _541  and  _542
REMARK  216  A    between atoms: _544  and  _546
REMARK  217  A    between atoms: _546  and  _547
REMARK  218  A    between atoms: _546  and  _549
REMARK  219  A    between atoms: _549  and  _550
REMARK  220  A    between atoms: _550  and  _551
REMARK  221  A    between atoms: _551  and  _552
REMARK  222  A    between atoms: _561  and  _563
REMARK  223  A    between atoms: _563  and  _564
REMARK  224  A    between atoms: _567  and  _569
REMARK  225  A    between atoms: _569  and  _570
REMARK  226  A    between atoms: _569  and  _572
REMARK  227  A    between atoms: _572  and  _573
REMARK  228  A    between atoms: _573  and  _574
REMARK  229  A    between atoms: _574  and  _575
REMARK  230  A    between atoms: _584  and  _586
REMARK  231  A    between atoms: _586  and  _587
REMARK  232  A    between atoms: _586  and  _589
REMARK  233  A    between atoms: _589  and  _590
REMARK  234  A    between atoms: _593  and  _595
REMARK  235  A    between atoms: _595  and  _596
REMARK  236  A    between atoms: _595  and  _598
REMARK  237  A    between atoms: _598  and  _599
REMARK  238  A    between atoms: _604  and  _606
REMARK  239  A    between atoms: _606  and  _607
REMARK  240  A    between atoms: _606  and  _609
REMARK  241  A    between atoms: _609  and  _610
REMARK  242  A    between atoms: _615  and  _616
REMARK  243  A    between atoms: _618  and  _620
REMARK  244  A    between atoms: _620  and  _621
REMARK  245  A    between atoms: _620  and  _623
REMARK  246  A    between atoms: _623  and  _624
REMARK  247  A    between atoms: _624  and  _625
REMARK  248  A    between atoms: _625  and  _627
REMARK  249  A    between atoms: _627  and  MG_715
REMARK  250  A    between atoms: _628  and  _630
REMARK  251  A    between atoms: _630  and  _631
REMARK  252  A    between atoms: _630  and  _633
REMARK  253  A    between atoms: _633  and  _634
REMARK  254  A    between atoms: _634  and  _635
REMARK  255  A    between atoms: _635  and  _636
REMARK  256  A    between atoms: _645  and  _647
REMARK  257  A    between atoms: _647  and  _648
REMARK  258  A    between atoms: _647  and  _650
REMARK  259  A    between atoms: _650  and  _651
REMARK  260  A    between atoms: _654  and  _656
REMARK  261  A    between atoms: _656  and  _657
REMARK  262  A    between atoms: _656  and  _659
REMARK  263  A    between atoms: _659  and  _660
REMARK  264  A    between atoms: _663  and  _665
REMARK  265  A    between atoms: _665  and  _666
REMARK  266  A    between atoms: _665  and  _668
REMARK  267  A    between atoms: _668  and  _669
REMARK  268  A    between atoms: _669  and  _670
REMARK  269  A    between atoms: _675  and  _677
REMARK  270  A    between atoms: _677  and  _678
REMARK  271  A    between atoms: _677  and  _680
REMARK  272  A    between atoms: _680  and  _681
REMARK  273  A    between atoms: _684  and  _686
REMARK  274  A    between atoms: _686  and  _687
REMARK  275  A    between atoms: _686  and  _689
REMARK  276  A    between atoms: _689  and  _690
REMARK  277  A    between atoms: _695  and  _696
REMARK  278  A    between atoms: _698  and  _700
REMARK  279  A    between atoms: _700  and  _701
REMARK  280  A    between atoms: _700  and  _703
REMARK  281  A    between atoms: _703  and  _704
REMARK  282  A    between atoms: _704  and  _705
REMARK  283  A    between atoms: _705  and  _706
REMARK                            x       y       z     vdW  Elec       q    Type
REMARK                         _______ _______ _______ _____ _____    ______ ____
ROOT
ATOM      1  C   THR A   3      26.360   1.042   4.575  0.00  0.00    +0.243 C 
ATOM      2  O   THR A   3      27.574   0.933   4.782  0.00  0.00    -0.273 OA
ATOM      3  N   LEU A   4      25.868   1.980   3.771  0.00  0.00    -0.297 N 
ATOM      4  H   LEU A   4      24.842   2.050   3.614  0.00  0.00    +0.150 HD
ENDROOT
BRANCH   3   5
ATOM      5  CA  LEU A   4      26.777   2.908   3.112  0.00  0.00    +0.149 C 
BRANCH   5   6
ATOM      6  C   LEU A   4      27.611   3.684   4.135  0.00  0.00    +0.241 C 
ATOM      7  N   PHE A   5      26.996   4.099   5.238  0.00  0.00    -0.297 N 
ATOM      8  H   PHE A   5      25.985   3.897   5.376  0.00  0.00    +0.150 HD
ATOM      9  O   LEU A   4      28.808   3.888   3.932  0.00  0.00    -0.273 OA
BRANCH   7  10
ATOM     10  CA  PHE A   5      27.737   4.838   6.256  0.00  0.00    +0.153 C 
BRANCH  10  11
ATOM     11  C   PHE A   5      28.692   3.946   7.023  0.00  0.00    +0.241 C 
ATOM     12  O   PHE A   5      29.650   4.430   7.625  0.00  0.00    -0.273 OA
ATOM     13  N   ALA A   6      28.426   2.642   6.994  0.00  0.00    -0.298 N 
ATOM     14  H   ALA A   6      27.577   2.308   6.495  0.00  0.00    +0.150 HD
BRANCH  13  15
ATOM     15  CA  ALA A   6      29.292   1.677   7.641  0.00  0.00    +0.137 C 
ATOM     16  CB  ALA A   6      28.537   0.378   7.926  0.00  0.00    +0.030 C 
BRANCH  15  17
ATOM     17  C   ALA A   6      30.458   1.411   6.700  0.00  0.00    +0.227 C 
ATOM     18  O   ALA A   6      31.610   1.452   7.117  0.00  0.00    -0.286 OA
ENDBRANCH  15  17
ENDBRANCH  13  15
ENDBRANCH  10  11
BRANCH  10  19
ATOM     19  CB  PHE A   5      26.779   5.561   7.210  0.00  0.00    +0.055 C 
BRANCH  19  20
ATOM     20  CG  PHE A   5      26.030   6.671   6.550  0.00  0.00    -0.020 A 
ATOM     21  CD2 PHE A   5      24.634   6.667   6.506  0.00  0.00    -0.004 A 
ATOM     22  CE2 PHE A   5      23.931   7.683   5.844  0.00  0.00    -0.000 A 
ATOM     23  CZ  PHE A   5      24.650   8.728   5.213  0.00  0.00    -0.000 A 
ATOM     24  CE1 PHE A   5      26.043   8.734   5.255  0.00  0.00    -0.000 A 
ATOM     25  CD1 PHE A   5      26.726   7.709   5.923  0.00  0.00    -0.004 A 
ENDBRANCH  19  20
ENDBRANCH  10  19
ENDBRANCH   7  10
ENDBRANCH   5   6
BRANCH   5  26
ATOM     26  CB  LEU A   4      26.008   3.870   2.192  0.00  0.00    +0.029 C 
BRANCH  26  27
ATOM     27  CG  LEU A   4      25.317   3.225   0.971  0.00  0.00    +0.002 C 
ATOM     28  CD2 LEU A   4      26.301   2.339   0.202  0.00  0.00    +0.000 C 
ATOM     29  CD1 LEU A   4      24.764   4.315   0.044  0.00  0.00    +0.000 C 
ENDBRANCH  26  27
ENDBRANCH   5  26
ENDBRANCH   3   5
BRANCH   1  30
ATOM     30  CA  THR A   3      25.351   0.089   5.254  0.00  0.00    +0.176 C 
BRANCH  30  33
ATOM     31  C   ALA A   2      24.385   1.807   6.677  0.00  0.00    +0.241 C 
ATOM     32  O   ALA A   2      25.499   2.180   7.056  0.00  0.00    -0.273 OA
ATOM     33  N   THR A   3      24.217   0.815   5.809  0.00  0.00    -0.295 N 
ATOM     34  H   THR A   3      23.254   0.551   5.519  0.00  0.00    +0.150 HD
BRANCH  31  35
ATOM     35  CA  ALA A   2      23.108   2.493   7.188  0.00  0.00    +0.149 C 
ATOM     36  CB  ALA A   2      22.397   1.599   8.178  0.00  0.00    +0.031 C 
BRANCH  35  38
ATOM     37  C   MET A   1      22.610   3.673   5.142  0.00  0.00    +0.238 C 
ATOM     38  N   ALA A   2      22.226   2.796   6.062  0.00  0.00    -0.297 N 
ATOM     39  H   ALA A   2      21.301   2.326   5.982  0.00  0.00    +0.150 HD
ATOM     40  O   MET A   1      23.695   4.254   5.203  0.00  0.00    -0.274 OA
BRANCH  37  41
ATOM     41  CA  MET A   1      21.650   3.922   3.984  0.00  0.00    +0.146 C 
BRANCH  41  42
ATOM     42  N   MET A   1      21.041   2.665   3.612  0.00  0.00    -0.238 NA
ATOM     43  H   MET A   1      20.008   2.560   3.672  0.00  0.00    +0.142 HD
ENDBRANCH  41  42
BRANCH  41  44
ATOM     44  CB  MET A   1      20.567   4.932   4.373  0.00  0.00    +0.038 C 
BRANCH  44  45
ATOM     45  CG  MET A   1      19.718   5.417   3.192  0.00  0.00    +0.060 C 
BRANCH  45  46
ATOM     46  SD  MET A   1      20.709   6.221   1.884  0.00  0.00    -0.139 S 
ATOM     47  CE  MET A   1      21.575   7.499   2.845  0.00  0.00    +0.069 C 
ENDBRANCH  45  46
ENDBRANCH  44  45
ENDBRANCH  41  44
ENDBRANCH  37  41
ENDBRANCH  35  38
ENDBRANCH  31  35
ENDBRANCH  30  33
BRANCH  30  48
ATOM     48  CB  THR A   3      24.870  -0.961   4.233  0.00  0.00    +0.137 C 
ATOM     49  CG2 THR A   3      26.020  -1.833   3.760  0.00  0.00    +0.034 C 
BRANCH  48  50
ATOM     50  OG1 THR A   3      23.888  -1.800   4.852  0.00  0.00    -0.382 OA
ATOM     51  HG1 THR A   3      23.122  -1.247   5.148  0.00  0.00    +0.210 HD
ENDBRANCH  48  50
ENDBRANCH  30  48
ENDBRANCH   1  30
TORSDOF 21
REMARK  Name = ../refined-set-2016/1mrn/1mrn_pocket.pdb
REMARK  283 active torsions:
REMARK  status: ('A' for Active; 'I' for Inactive)
REMARK    1  A    between atoms: _1  and  _3
REMARK    2  A    between atoms: _3  and  _4
REMARK    3  A    between atoms: _3  and  _6
REMARK    4  A    between atoms: _6  and  _7
REMARK    5  A    between atoms: _7  and  _8
REMARK    6  A    between atoms: _11  and  _13
REMARK    7  A    between atoms: _13  and  _14
REMARK    8  A    between atoms: _16  and  _18
REMARK    9  A    between atoms: _18  and  _19
REMARK   10  A    between atoms: _18  and  _21
REMARK   11  A    between atoms: _24  and  _26
REMARK   12  A    between atoms: _26  and  _27
REMARK   13  A    between atoms: _26  and  _29
REMARK   14  A    between atoms: _29  and  _30
REMARK   15  A    between atoms: _30  and  _31
REMARK   16  A    between atoms: _31  and  MG_715
REMARK   17  A    between atoms: _33  and  _35
REMARK   18  A    between atoms: _35  and  _36
REMARK   19  A    between atoms: _38  and  _40
REMARK   20  A    between atoms: _40  and  _41
REMARK   21  A    between atoms: _44  and  _46
REMARK   22  A    between atoms: _46  and  _47
REMARK   23  A    between atoms: _46  and  _49
REMARK   24  A    between atoms: _49  and  _50
REMARK   25  A    between atoms: _50  and  _51
REMARK   26  A    between atoms: _51  and  _52
REMARK   27  A    between atoms: _52  and  _53
REMARK   28  A    between atoms: _57  and  _59
REMARK   29  A    between atoms: _59  and  _60
REMARK   30  A    between atoms: _59  and  _62
REMARK   31  A    between atoms: _62  and  _63
REMARK   32  A    between atoms: _63  and  _64
REMARK   33  A    between atoms: _64  and  _65
REMARK   34  A    between atoms: _74  and  _76
REMARK   35  A    between atoms: _76  and  _77
REMARK   36  A    between atoms: _80  and  _82
REMARK   37  A    between atoms: _82  and  _83
REMARK   38  A    between atoms: _82  and  _85
REMARK   39  A    between atoms: _85  and  _86
REMARK   40  A    between atoms: _93  and  _94
REMARK   41  A    between atoms: _99  and  _101
REMARK   42  A    between atoms: _101  and  _102
REMARK   43  A    between atoms: _101  and  _104
REMARK   44  A    between atoms: _104  and  _105
REMARK   45  A    between atoms: _105  and  _106
REMARK   46  A    between atoms: _106  and  _107
REMARK   47  A    between atoms: _116  and  _118
REMARK   48  A    between atoms: _118  and  _119
REMARK   49  A    between atoms: _118  and  _121
REMARK   50  A    between atoms: _121  and  _122
REMARK   51  A    between atoms: _127  and  _128
REMARK   52  A    between atoms: _130  and  _132
REMARK   53  A    between atoms: _132  and  _133
REMARK   54  A    between atoms: _135  and  _137
REMARK   55  A    between atoms: _137  and  _138
REMARK   56  A    between atoms: _137  and  _140
REMARK   57  A    between atoms: _140  and  _141
REMARK   58  A    between atoms: _143  and  _145
REMARK   59  A    between atoms: _145  and  _146
REMARK   60  A    between atoms: _145  and  _148
REMARK   61  A    between atoms: _151  and  _153
REMARK   62  A    between atoms: _153  and  _154
REMARK   63  A    between atoms: _157  and  _159
REMARK   64  A    between atoms: _159  and  _160
REMARK   65  A    between atoms: _159  and  _162
REMARK   66  A    between atoms: _162  and  _163
REMARK   67  A    between atoms: _166  and  _168
REMARK   68  A    between atoms: _168  and  _169
REMARK   69  A    between atoms: _168  and  _171
REMARK   70  A    between atoms: _171  and  _172
REMARK   71  A    between atoms: _175  and  _177
REMARK   72  A    between atoms: _177  and  _178
REMARK   73  A    between atoms: _181  and  _183
REMARK   74  A    between atoms: _183  and  _184
REMARK   75  A    between atoms: _187  and  _189
REMARK   76  A    between atoms: _189  and  _190
REMARK   77  A    between atoms: _189  and  _192
REMARK   78  A    between atoms: _192  and  _193
REMARK   79  A    between atoms: _193  and  _194
REMARK   80  A    between atoms: _197  and  _199
REMARK   81  A    between atoms: _199  and  _200
REMARK   82  A    between atoms: _203  and  _205
REMARK   83  A    between atoms: _205  and  _206
REMARK   84  A    between atoms: _205  and  _208
REMARK   85  A    between atoms: _208  and  _209
REMARK   86  A    between atoms: _212  and  _214
REMARK   87  A    between atoms: _214  and  _215
REMARK   88  A    between atoms: _214  and  _217
REMARK   89  A    between atoms: _217  and  _218
REMARK   90  A    between atoms: _223  and  _225
REMARK   91  A    between atoms: _225  and  _226
REMARK   92  A    between atoms: _228  and  _230
REMARK   93  A    between atoms: _230  and  _231
REMARK   94  A    between atoms: _230  and  _233
REMARK   95  A    between atoms: _233  and  _234
REMARK   96  A    between atoms: _234  and  _235
REMARK   97  A    between atoms: _238  and  _240
REMARK   98  A    between atoms: _240  and  _241
REMARK   99  A    between atoms: _240  and  _243
REMARK  100  A    between atoms: _243  and  _244
REMARK  101  A    between atoms: _249  and  _251
REMARK  102  A    between atoms: _251  and  _252
REMARK  103  A    between atoms: _251  and  _254
REMARK  104  A    between atoms: _257  and  _259
REMARK  105  A    between atoms: _259  and  _260
REMARK  106  A    between atoms: _259  and  _262
REMARK  107  A    between atoms: _262  and  _263
REMARK  108  A    between atoms: _263  and  _264
REMARK  109  A    between atoms: _266  and  _268
REMARK  110  A    between atoms: _268  and  _269
REMARK  111  A    between atoms: _272  and  _274
REMARK  112  A    between atoms: _274  and  _275
REMARK  113  A    between atoms: _274  and  _277
REMARK  114  A    between atoms: _277  and  _278
REMARK  115  A    between atoms: _281  and  _283
REMARK  116  A    between atoms: _283  and  _284
REMARK  117  A    between atoms: _283  and  _286
REMARK  118  A    between atoms: _286  and  _287
REMARK  119  A    between atoms: _290  and  _292
REMARK  120  A    between atoms: _292  and  _293
REMARK  121  A    between atoms: _292  and  _295
REMARK  122  A    between atoms: _295  and  _296
REMARK  123  A    between atoms: _302  and  _304
REMARK  124  A    between atoms: _304  and  _305
REMARK  125  A    between atoms: _308  and  _310
REMARK  126  A    between atoms: _310  and  _311
REMARK  127  A    between atoms: _310  and  _313
REMARK  128  A    between atoms: _313  and  _314
REMARK  129  A    between atoms: _317  and  _319
REMARK  130  A    between atoms: _319  and  _320
REMARK  131  A    between atoms: _319  and  _322
REMARK  132  A    between atoms: _322  and  _323
REMARK  133  A    between atoms: _323  and  _324
REMARK  134  A    between atoms: _324  and  _325
REMARK  135  A    between atoms: _334  and  _336
REMARK  136  A    between atoms: _336  and  _337
REMARK  137  A    between atoms: _336  and  _339
REMARK  138  A    between atoms: _339  and  _340
REMARK  139  A    between atoms: _343  and  _345
REMARK  140  A    between atoms: _345  and  _346
REMARK  141  A    between atoms: _345  and  _348
REMARK  142  A    between atoms: _348  and  _349
REMARK  143  A    between atoms: _349  and  _350
REMARK  144  A    between atoms: _350  and  _351
REMARK  145  A    between atoms: _360  and  _362
REMARK  146  A    between atoms: _362  and  _363
REMARK  147  A    between atoms: _362  and  _365
REMARK  148  A    between atoms: _365  and  _366
REMARK  149  A    between atoms: _371  and  _372
REMARK  150  A    between atoms: _374  and  _376
REMARK  151  A    between atoms: _376  and  _377
REMARK  152  A    between atoms: _376  and  _379
REMARK  153  A    between atoms: _382  and  _384
REMARK  154  A    between atoms: _384  and  _385
REMARK  155  A    between atoms: _388  and  _390
REMARK  156  A    between atoms: _390  and  _391
REMARK  157  A    between atoms: _390  and  _393
REMARK  158  A    between atoms: _393  and  _394
REMARK  159  A    between atoms: _396  and  _398
REMARK  160  A    between atoms: _398  and  _399
REMARK  161  A    between atoms: _398  and  _401
REMARK  162  A    between atoms: _401  and  _402
REMARK  163  A    between atoms: _407  and  _409
REMARK  164  A    between atoms: _409  and  _410
REMARK  165  A    between atoms: _413  and  _415
REMARK  166  A    between atoms: _415  and  _416
REMARK  167  A    between atoms: _419  and  _421
REMARK  168  A    between atoms: _421  and  _422
REMARK  169  A    between atoms: _421  and  _424
REMARK  170  A    between atoms: _424  and  _425
REMARK  171  A    between atoms: _430  and  _431
REMARK  172  A    between atoms: _433  and  _435
REMARK  173  A    between atoms: _435  and  _436
REMARK  174  A    between atoms: _435  and  _438
REMARK  175  A    between atoms: _438  and  _439
REMARK  176  A    between atoms: _441  and  _443
REMARK  177  A    between atoms: _443  and  _444
REMARK  178  A    between atoms: _447  and  _449
REMARK  179  A    between atoms: _449  and  _450
REMARK  180  A    between atoms: _449  and  _452
REMARK  181  A    between atoms: _452  and  _453
REMARK  182  A    between atoms: _453  and  _454
REMARK  183  A    between atoms: _454  and  _455
REMARK  184  A    between atoms: _464  and  _466
REMARK  185  A    between atoms: _466  and  _467
REMARK  186  A    between atoms: _466  and  _469
REMARK  187  A    between atoms: _472  and  _474
REMARK  188  A    between atoms: _474  and  _475
REMARK  189  A    between atoms: _474  and  _477
REMARK  190  A    between atoms: _477  and  _478
REMARK  191  A    between atoms: _478  and  _479
REMARK  192  A    between atoms: _482  and  _484
REMARK  193  A    between atoms: _484  and  _485
REMARK  194  A    between atoms: _484  and  _487
REMARK  195  A    between atoms: _487  and  _488
REMARK  196  A    between atoms: _490  and  _492
REMARK  197  A    between atoms: _492  and  _493
REMARK  198  A    between atoms: _492  and  _495
REMARK  199  A    between atoms: _495  and  _496
REMARK  200  A    between atoms: _496  and  _497
REMARK  201  A    between atoms: _497  and  _498
REMARK  202  A    between atoms: _507  and  _509
REMARK  203  A    between atoms: _509  and  _510
REMARK  204  A    between atoms: _513  and  _515
REMARK  205  A    between atoms: _515  and  _516
REMARK  206  A    between atoms: _515  and  _518
REMARK  207  A    between atoms: _518  and  _519
REMARK  208  A    between atoms: _519  and  _520
REMARK  209  A    between atoms: _520  and  _521
REMARK  210  A    between atoms: _530  and  _532
REMARK  211  A    between atoms: _532  and  _533
REMARK  212  A    between atoms: _532  and  _535
REMARK  213  A    between atoms: _535  and  _536
REMARK  214  A    between atoms: _539  and  _541
REMARK  215  A    between atoms: _541  and  _542
REMARK  216  A    between atoms: _544  and  _546
REMARK  217  A    between atoms: _546  and  _547
REMARK  218  A    between atoms: _546  and  _549
REMARK  219  A    between atoms: _549  and  _550
REMARK  220  A    between atoms: _550  and  _551
REMARK  221  A    between atoms: _551  and  _552
REMARK  222  A    between atoms: _561  and  _563
REMARK  223  A    between atoms: _563  and  _564
REMARK  224  A    between atoms: _567  and  _569
REMARK  225  A    between atoms: _569  and  _570
REMARK  226  A    between atoms: _569  and  _572
REMARK  227  A    between atoms: _572  and  _573
REMARK  228  A    between atoms: _573  and  _574
REMARK  229  A    between atoms: _574  and  _575
REMARK  230  A    between atoms: _584  and  _586
REMARK  231  A    between atoms: _586  and  _587
REMARK  232  A    between atoms: _586  and  _589
REMARK  233  A    between atoms: _589  and  _590
REMARK  234  A    between atoms: _593  and  _595
REMARK  235  A    between atoms: _595  and  _596
REMARK  236  A    between atoms: _595  and  _598
REMARK  237  A    between atoms: _598  and  _599
REMARK  238  A    between atoms: _604  and  _606
REMARK  239  A    between atoms: _606  and  _607
REMARK  240  A    between atoms: _606  and  _609
REMARK  241  A    between atoms: _609  and  _610
REMARK  242  A    between atoms: _615  and  _616
REMARK  243  A    between atoms: _618  and  _620
REMARK  244  A    between atoms: _620  and  _621
REMARK  245  A    between atoms: _620  and  _623
REMARK  246  A    between atoms: _623  and  _624
REMARK  247  A    between atoms: _624  and  _625
REMARK  248  A    between atoms: _625  and  _627
REMARK  249  A    between atoms: _627  and  MG_715
REMARK  250  A    between atoms: _628  and  _630
REMARK  251  A    between atoms: _630  and  _631
REMARK  252  A    between atoms: _630  and  _633
REMARK  253  A    between atoms: _633  and  _634
REMARK  254  A    between atoms: _634  and  _635
REMARK  255  A    between atoms: _635  and  _636
REMARK  256  A    between atoms: _645  and  _647
REMARK  257  A    between atoms: _647  and  _648
REMARK  258  A    between atoms: _647  and  _650
REMARK  259  A    between atoms: _650  and  _651
REMARK  260  A    between atoms: _654  and  _656
REMARK  261  A    between atoms: _656  and  _657
REMARK  262  A    between atoms: _656  and  _659
REMARK  263  A    between atoms: _659  and  _660
REMARK  264  A    between atoms: _663  and  _665
REMARK  265  A    between atoms: _665  and  _666
REMARK  266  A    between atoms: _665  and  _668
REMARK  267  A    between atoms: _668  and  _669
REMARK  268  A    between atoms: _669  and  _670
REMARK  269  A    between atoms: _675  and  _677
REMARK  270  A    between atoms: _677  and  _678
REMARK  271  A    between atoms: _677  and  _680
REMARK  272  A    between atoms: _680  and  _681
REMARK  273  A    between atoms: _684  and  _686
REMARK  274  A    between atoms: _686  and  _687
REMARK  275  A    between atoms: _686  and  _689
REMARK  276  A    between atoms: _689  and  _690
REMARK  277  A    between atoms: _695  and  _696
REMARK  278  A    between atoms: _698  and  _700
REMARK  279  A    between atoms: _700  and  _701
REMARK  280  A    between atoms: _700  and  _703
REMARK  281  A    between atoms: _703  and  _704
REMARK  282  A    between atoms: _704  and  _705
REMARK  283  A    between atoms: _705  and  _706
REMARK                            x       y       z     vdW  Elec       q    Type
REMARK                         _______ _______ _______ _____ _____    ______ ____
ROOT
ATOM      1  CA  ARG A   2      33.968   4.013   7.977  0.00  0.00    +0.137 C 
ENDROOT
BRANCH   1   3
ATOM      2  C   ASP A   1      33.582   4.303   5.603  0.00  0.00    +0.239 C 
ATOM      3  N   ARG A   2      33.097   4.163   6.830  0.00  0.00    -0.298 N 
ATOM      4  H   ARG A   2      32.067   4.161   6.971  0.00  0.00    +0.150 HD
ATOM      5  O   ASP A   1      34.788   4.333   5.348  0.00  0.00    -0.274 OA
BRANCH   2   6
ATOM      6  CA  ASP A   1      32.542   4.431   4.506  0.00  0.00    +0.156 C 
BRANCH   6   7
ATOM      7  N   ASP A   1      31.698   3.242   4.565  0.00  0.00    -0.238 NA
ATOM      8  H   ASP A   1      30.695   3.347   4.819  0.00  0.00    +0.142 HD
ENDBRANCH   6   7
BRANCH   6   9
ATOM      9  CB  ASP A   1      31.714   5.709   4.728  0.00  0.00    +0.140 C 
BRANCH   9  10
ATOM     10  CG  ASP A   1      32.581   6.926   5.009  0.00  0.00    +0.367 C 
ATOM     11  OD2 ASP A   1      32.124   7.833   5.724  0.00  0.00    -0.246 OA
ATOM     12  OD1 ASP A   1      33.725   6.980   4.509  0.00  0.00    -0.246 OA
ENDBRANCH   9  10
ENDBRANCH   6   9
ENDBRANCH   2   6
ENDBRANCH   1   3
BRANCH   1  13
ATOM     13  C   ARG A   2      34.868   2.787   7.833  0.00  0.00    +0.227 C 
ATOM     14  O   ARG A   2      36.020   2.824   8.247  0.00  0.00    -0.286 OA
ENDBRANCH   1  13
BRANCH   1  15
ATOM     15  CB  ARG A   2      33.142   3.920   9.258  0.00  0.00    +0.031 C 
BRANCH  15  16
ATOM     16  CG  ARG A   2      32.571   5.246   9.695  0.00  0.00    +0.045 C 
BRANCH  16  17
ATOM     17  CD  ARG A   2      31.954   5.153  11.077  0.00  0.00    +0.174 C 
BRANCH  17  18
ATOM     18  NE  ARG A   2      30.662   4.483  11.074  0.00  0.00    -0.265 N 
ATOM     19  HE  ARG A   2      30.634   3.482  11.355  0.00  0.00    +0.259 HD
ATOM     20  CZ  ARG A   2      29.515   5.066  10.736  0.00  0.00    +0.342 C 
ATOM     21  NH2 ARG A   2      28.379   4.386  10.778  0.00  0.00    -0.292 N 
ATOM     22 HH21 ARG A   2      28.380   3.390  11.077  0.00  0.00    +0.255 HD
ATOM     23 HH22 ARG A   2      27.486   4.848  10.512  0.00  0.00    +0.255 HD
ATOM     24  NH1 ARG A   2      29.500   6.335  10.372  0.00  0.00    -0.292 N 
ATOM     25 HH11 ARG A   2      30.385   6.880  10.349  0.00  0.00    +0.255 HD
ATOM     26 HH12 ARG A   2      28.603   6.790  10.108  0.00  0.00    +0.255 HD
ENDBRANCH  17  18
ENDBRANCH  16  17
ENDBRANCH  15  16
ENDBRANCH   1  15
TORSDOF 10
REMARK  Name = ../refined-set-2016/1mrn/1mrn_pocket.pdb
REMARK  283 active torsions:
REMARK  status: ('A' for Active; 'I' for Inactive)
REMARK    1  A    between atoms: _1  and  _3
REMARK    2  A    between atoms: _3  and  _4
REMARK    3  A    between atoms: _3  and  _6
REMARK    4  A    between atoms: _6  and  _7
REMARK    5  A    between atoms: _7  and  _8
REMARK    6  A    between atoms: _11  and  _13
REMARK    7  A    between atoms: _13  and  _14
REMARK    8  A    between atoms: _16  and  _18
REMARK    9  A    between atoms: _18  and  _19
REMARK   10  A    between atoms: _18  and  _21
REMARK   11  A    between atoms: _24  and  _26
REMARK   12  A    between atoms: _26  and  _27
REMARK   13  A    between atoms: _26  and  _29
REMARK   14  A    between atoms: _29  and  _30
REMARK   15  A    between atoms: _30  and  _31
REMARK   16  A    between atoms: _31  and  MG_715
REMARK   17  A    between atoms: _33  and  _35
REMARK   18  A    between atoms: _35  and  _36
REMARK   19  A    between atoms: _38  and  _40
REMARK   20  A    between atoms: _40  and  _41
REMARK   21  A    between atoms: _44  and  _46
REMARK   22  A    between atoms: _46  and  _47
REMARK   23  A    between atoms: _46  and  _49
REMARK   24  A    between atoms: _49  and  _50
REMARK   25  A    between atoms: _50  and  _51
REMARK   26  A    between atoms: _51  and  _52
REMARK   27  A    between atoms: _52  and  _53
REMARK   28  A    between atoms: _57  and  _59
REMARK   29  A    between atoms: _59  and  _60
REMARK   30  A    between atoms: _59  and  _62
REMARK   31  A    between atoms: _62  and  _63
REMARK   32  A    between atoms: _63  and  _64
REMARK   33  A    between atoms: _64  and  _65
REMARK   34  A    between atoms: _74  and  _76
REMARK   35  A    between atoms: _76  and  _77
REMARK   36  A    between atoms: _80  and  _82
REMARK   37  A    between atoms: _82  and  _83
REMARK   38  A    between atoms: _82  and  _85
REMARK   39  A    between atoms: _85  and  _86
REMARK   40  A    between atoms: _93  and  _94
REMARK   41  A    between atoms: _99  and  _101
REMARK   42  A    between atoms: _101  and  _102
REMARK   43  A    between atoms: _101  and  _104
REMARK   44  A    between atoms: _104  and  _105
REMARK   45  A    between atoms: _105  and  _106
REMARK   46  A    between atoms: _106  and  _107
REMARK   47  A    between atoms: _116  and  _118
REMARK   48  A    between atoms: _118  and  _119
REMARK   49  A    between atoms: _118  and  _121
REMARK   50  A    between atoms: _121  and  _122
REMARK   51  A    between atoms: _127  and  _128
REMARK   52  A    between atoms: _130  and  _132
REMARK   53  A    between atoms: _132  and  _133
REMARK   54  A    between atoms: _135  and  _137
REMARK   55  A    between atoms: _137  and  _138
REMARK   56  A    between atoms: _137  and  _140
REMARK   57  A    between atoms: _140  and  _141
REMARK   58  A    between atoms: _143  and  _145
REMARK   59  A    between atoms: _145  and  _146
REMARK   60  A    between atoms: _145  and  _148
REMARK   61  A    between atoms: _151  and  _153
REMARK   62  A    between atoms: _153  and  _154
REMARK   63  A    between atoms: _157  and  _159
REMARK   64  A    between atoms: _159  and  _160
REMARK   65  A    between atoms: _159  and  _162
REMARK   66  A    between atoms: _162  and  _163
REMARK   67  A    between atoms: _166  and  _168
REMARK   68  A    between atoms: _168  and  _169
REMARK   69  A    between atoms: _168  and  _171
REMARK   70  A    between atoms: _171  and  _172
REMARK   71  A    between atoms: _175  and  _177
REMARK   72  A    between atoms: _177  and  _178
REMARK   73  A    between atoms: _181  and  _183
REMARK   74  A    between atoms: _183  and  _184
REMARK   75  A    between atoms: _187  and  _189
REMARK   76  A    between atoms: _189  and  _190
REMARK   77  A    between atoms: _189  and  _192
REMARK   78  A    between atoms: _192  and  _193
REMARK   79  A    between atoms: _193  and  _194
REMARK   80  A    between atoms: _197  and  _199
REMARK   81  A    between atoms: _199  and  _200
REMARK   82  A    between atoms: _203  and  _205
REMARK   83  A    between atoms: _205  and  _206
REMARK   84  A    between atoms: _205  and  _208
REMARK   85  A    between atoms: _208  and  _209
REMARK   86  A    between atoms: _212  and  _214
REMARK   87  A    between atoms: _214  and  _215
REMARK   88  A    between atoms: _214  and  _217
REMARK   89  A    between atoms: _217  and  _218
REMARK   90  A    between atoms: _223  and  _225
REMARK   91  A    between atoms: _225  and  _226
REMARK   92  A    between atoms: _228  and  _230
REMARK   93  A    between atoms: _230  and  _231
REMARK   94  A    between atoms: _230  and  _233
REMARK   95  A    between atoms: _233  and  _234
REMARK   96  A    between atoms: _234  and  _235
REMARK   97  A    between atoms: _238  and  _240
REMARK   98  A    between atoms: _240  and  _241
REMARK   99  A    between atoms: _240  and  _243
REMARK  100  A    between atoms: _243  and  _244
REMARK  101  A    between atoms: _249  and  _251
REMARK  102  A    between atoms: _251  and  _252
REMARK  103  A    between atoms: _251  and  _254
REMARK  104  A    between atoms: _257  and  _259
REMARK  105  A    between atoms: _259  and  _260
REMARK  106  A    between atoms: _259  and  _262
REMARK  107  A    between atoms: _262  and  _263
REMARK  108  A    between atoms: _263  and  _264
REMARK  109  A    between atoms: _266  and  _268
REMARK  110  A    between atoms: _268  and  _269
REMARK  111  A    between atoms: _272  and  _274
REMARK  112  A    between atoms: _274  and  _275
REMARK  113  A    between atoms: _274  and  _277
REMARK  114  A    between atoms: _277  and  _278
REMARK  115  A    between atoms: _281  and  _283
REMARK  116  A    between atoms: _283  and  _284
REMARK  117  A    between atoms: _283  and  _286
REMARK  118  A    between atoms: _286  and  _287
REMARK  119  A    between atoms: _290  and  _292
REMARK  120  A    between atoms: _292  and  _293
REMARK  121  A    between atoms: _292  and  _295
REMARK  122  A    between atoms: _295  and  _296
REMARK  123  A    between atoms: _302  and  _304
REMARK  124  A    between atoms: _304  and  _305
REMARK  125  A    between atoms: _308  and  _310
REMARK  126  A    between atoms: _310  and  _311
REMARK  127  A    between atoms: _310  and  _313
REMARK  128  A    between atoms: _313  and  _314
REMARK  129  A    between atoms: _317  and  _319
REMARK  130  A    between atoms: _319  and  _320
REMARK  131  A    between atoms: _319  and  _322
REMARK  132  A    between atoms: _322  and  _323
REMARK  133  A    between atoms: _323  and  _324
REMARK  134  A    between atoms: _324  and  _325
REMARK  135  A    between atoms: _334  and  _336
REMARK  136  A    between atoms: _336  and  _337
REMARK  137  A    between atoms: _336  and  _339
REMARK  138  A    between atoms: _339  and  _340
REMARK  139  A    between atoms: _343  and  _345
REMARK  140  A    between atoms: _345  and  _346
REMARK  141  A    between atoms: _345  and  _348
REMARK  142  A    between atoms: _348  and  _349
REMARK  143  A    between atoms: _349  and  _350
REMARK  144  A    between atoms: _350  and  _351
REMARK  145  A    between atoms: _360  and  _362
REMARK  146  A    between atoms: _362  and  _363
REMARK  147  A    between atoms: _362  and  _365
REMARK  148  A    between atoms: _365  and  _366
REMARK  149  A    between atoms: _371  and  _372
REMARK  150  A    between atoms: _374  and  _376
REMARK  151  A    between atoms: _376  and  _377
REMARK  152  A    between atoms: _376  and  _379
REMARK  153  A    between atoms: _382  and  _384
REMARK  154  A    between atoms: _384  and  _385
REMARK  155  A    between atoms: _388  and  _390
REMARK  156  A    between atoms: _390  and  _391
REMARK  157  A    between atoms: _390  and  _393
REMARK  158  A    between atoms: _393  and  _394
REMARK  159  A    between atoms: _396  and  _398
REMARK  160  A    between atoms: _398  and  _399
REMARK  161  A    between atoms: _398  and  _401
REMARK  162  A    between atoms: _401  and  _402
REMARK  163  A    between atoms: _407  and  _409
REMARK  164  A    between atoms: _409  and  _410
REMARK  165  A    between atoms: _413  and  _415
REMARK  166  A    between atoms: _415  and  _416
REMARK  167  A    between atoms: _419  and  _421
REMARK  168  A    between atoms: _421  and  _422
REMARK  169  A    between atoms: _421  and  _424
REMARK  170  A    between atoms: _424  and  _425
REMARK  171  A    between atoms: _430  and  _431
REMARK  172  A    between atoms: _433  and  _435
REMARK  173  A    between atoms: _435  and  _436
REMARK  174  A    between atoms: _435  and  _438
REMARK  175  A    between atoms: _438  and  _439
REMARK  176  A    between atoms: _441  and  _443
REMARK  177  A    between atoms: _443  and  _444
REMARK  178  A    between atoms: _447  and  _449
REMARK  179  A    between atoms: _449  and  _450
REMARK  180  A    between atoms: _449  and  _452
REMARK  181  A    between atoms: _452  and  _453
REMARK  182  A    between atoms: _453  and  _454
REMARK  183  A    between atoms: _454  and  _455
REMARK  184  A    between atoms: _464  and  _466
REMARK  185  A    between atoms: _466  and  _467
REMARK  186  A    between atoms: _466  and  _469
REMARK  187  A    between atoms: _472  and  _474
REMARK  188  A    between atoms: _474  and  _475
REMARK  189  A    between atoms: _474  and  _477
REMARK  190  A    between atoms: _477  and  _478
REMARK  191  A    between atoms: _478  and  _479
REMARK  192  A    between atoms: _482  and  _484
REMARK  193  A    between atoms: _484  and  _485
REMARK  194  A    between atoms: _484  and  _487
REMARK  195  A    between atoms: _487  and  _488
REMARK  196  A    between atoms: _490  and  _492
REMARK  197  A    between atoms: _492  and  _493
REMARK  198  A    between atoms: _492  and  _495
REMARK  199  A    between atoms: _495  and  _496
REMARK  200  A    between atoms: _496  and  _497
REMARK  201  A    between atoms: _497  and  _498
REMARK  202  A    between atoms: _507  and  _509
REMARK  203  A    between atoms: _509  and  _510
REMARK  204  A    between atoms: _513  and  _515
REMARK  205  A    between atoms: _515  and  _516
REMARK  206  A    between atoms: _515  and  _518
REMARK  207  A    between atoms: _518  and  _519
REMARK  208  A    between atoms: _519  and  _520
REMARK  209  A    between atoms: _520  and  _521
REMARK  210  A    between atoms: _530  and  _532
REMARK  211  A    between atoms: _532  and  _533
REMARK  212  A    between atoms: _532  and  _535
REMARK  213  A    between atoms: _535  and  _536
REMARK  214  A    between atoms: _539  and  _541
REMARK  215  A    between atoms: _541  and  _542
REMARK  216  A    between atoms: _544  and  _546
REMARK  217  A    between atoms: _546  and  _547
REMARK  218  A    between atoms: _546  and  _549
REMARK  219  A    between atoms: _549  and  _550
REMARK  220  A    between atoms: _550  and  _551
REMARK  221  A    between atoms: _551  and  _552
REMARK  222  A    between atoms: _561  and  _563
REMARK  223  A    between atoms: _563  and  _564
REMARK  224  A    between atoms: _567  and  _569
REMARK  225  A    between atoms: _569  and  _570
REMARK  226  A    between atoms: _569  and  _572
REMARK  227  A    between atoms: _572  and  _573
REMARK  228  A    between atoms: _573  and  _574
REMARK  229  A    between atoms: _574  and  _575
REMARK  230  A    between atoms: _584  and  _586
REMARK  231  A    between atoms: _586  and  _587
REMARK  232  A    between atoms: _586  and  _589
REMARK  233  A    between atoms: _589  and  _590
REMARK  234  A    between atoms: _593  and  _595
REMARK  235  A    between atoms: _595  and  _596
REMARK  236  A    between atoms: _595  and  _598
REMARK  237  A    between atoms: _598  and  _599
REMARK  238  A    between atoms: _604  and  _606
REMARK  239  A    between atoms: _606  and  _607
REMARK  240  A    between atoms: _606  and  _609
REMARK  241  A    between atoms: _609  and  _610
REMARK  242  A    between atoms: _615  and  _616
REMARK  243  A    between atoms: _618  and  _620
REMARK  244  A    between atoms: _620  and  _621
REMARK  245  A    between atoms: _620  and  _623
REMARK  246  A    between atoms: _623  and  _624
REMARK  247  A    between atoms: _624  and  _625
REMARK  248  A    between atoms: _625  and  _627
REMARK  249  A    between atoms: _627  and  MG_715
REMARK  250  A    between atoms: _628  and  _630
REMARK  251  A    between atoms: _630  and  _631
REMARK  252  A    between atoms: _630  and  _633
REMARK  253  A    between atoms: _633  and  _634
REMARK  254  A    between atoms: _634  and  _635
REMARK  255  A    between atoms: _635  and  _636
REMARK  256  A    between atoms: _645  and  _647
REMARK  257  A    between atoms: _647  and  _648
REMARK  258  A    between atoms: _647  and  _650
REMARK  259  A    between atoms: _650  and  _651
REMARK  260  A    between atoms: _654  and  _656
REMARK  261  A    between atoms: _656  and  _657
REMARK  262  A    between atoms: _656  and  _659
REMARK  263  A    between atoms: _659  and  _660
REMARK  264  A    between atoms: _663  and  _665
REMARK  265  A    between atoms: _665  and  _666
REMARK  266  A    between atoms: _665  and  _668
REMARK  267  A    between atoms: _668  and  _669
REMARK  268  A    between atoms: _669  and  _670
REMARK  269  A    between atoms: _675  and  _677
REMARK  270  A    between atoms: _677  and  _678
REMARK  271  A    between atoms: _677  and  _680
REMARK  272  A    between atoms: _680  and  _681
REMARK  273  A    between atoms: _684  and  _686
REMARK  274  A    between atoms: _686  and  _687
REMARK  275  A    between atoms: _686  and  _689
REMARK  276  A    between atoms: _689  and  _690
REMARK  277  A    between atoms: _695  and  _696
REMARK  278  A    between atoms: _698  and  _700
REMARK  279  A    between atoms: _700  and  _701
REMARK  280  A    between atoms: _700  and  _703
REMARK  281  A    between atoms: _703  and  _704
REMARK  282  A    between atoms: _704  and  _705
REMARK  283  A    between atoms: _705  and  _706
REMARK                            x       y       z     vdW  Elec       q    Type
REMARK                         _______ _______ _______ _____ _____    ______ ____
ROOT
ATOM      1  CA  SER A   6      25.037   8.026  14.367  0.00  0.00    +0.178 C 
ENDROOT
BRANCH   1   4
ATOM      2  C   ALA A   5      25.487   6.599  16.273  0.00  0.00    +0.241 C 
ATOM      3  O   ALA A   5      24.280   6.484  16.490  0.00  0.00    -0.273 OA
ATOM      4  N   SER A   6      25.956   7.323  15.263  0.00  0.00    -0.295 N 
ATOM      5  H   SER A   6      26.982   7.391  15.108  0.00  0.00    +0.150 HD
BRANCH   2   6
ATOM      6  CA  ALA A   5      26.514   5.899  17.177  0.00  0.00    +0.149 C 
ATOM      7  CB  ALA A   5      26.801   6.761  18.392  0.00  0.00    +0.031 C 
BRANCH   6   9
ATOM      8  C   VAL A   4      27.730   4.957  15.314  0.00  0.00    +0.241 C 
ATOM      9  N   ALA A   5      27.755   5.587  16.482  0.00  0.00    -0.297 N 
ATOM     10  H   ALA A   5      28.666   5.859  16.903  0.00  0.00    +0.150 HD
ATOM     11  O   VAL A   4      26.671   4.620  14.776  0.00  0.00    -0.273 OA
BRANCH   8  12
ATOM     12  CA  VAL A   4      29.078   4.680  14.631  0.00  0.00    +0.149 C 
BRANCH  12  14
ATOM     13  C   TYR A   3      29.703   6.965  14.190  0.00  0.00    +0.241 C 
ATOM     14  N   VAL A   4      30.009   5.791  14.736  0.00  0.00    -0.297 N 
ATOM     15  H   VAL A   4      30.912   5.669  15.237  0.00  0.00    +0.150 HD
ATOM     16  O   TYR A   3      28.634   7.149  13.597  0.00  0.00    -0.273 OA
BRANCH  13  17
ATOM     17  CA  TYR A   3      30.731   8.104  14.309  0.00  0.00    +0.153 C 
BRANCH  17  19
ATOM     18  C   ARG A   2      30.620  10.489  13.857  0.00  0.00    +0.241 C 
ATOM     19  N   TYR A   3      30.069   9.401  14.392  0.00  0.00    -0.297 N 
ATOM     20  H   TYR A   3      29.152   9.477  14.877  0.00  0.00    +0.150 HD
ATOM     21  O   ARG A   2      31.708  10.470  13.268  0.00  0.00    -0.273 OA
BRANCH  18  22
ATOM     22  CA  ARG A   2      29.823  11.792  13.981  0.00  0.00    +0.149 C 
BRANCH  22  24
ATOM     23  C   ASP A   1      31.461  13.548  13.403  0.00  0.00    +0.239 C 
ATOM     24  N   ARG A   2      30.735  12.897  14.312  0.00  0.00    -0.297 N 
ATOM     25  H   ARG A   2      30.818  13.186  15.308  0.00  0.00    +0.150 HD
ATOM     26  O   ASP A   1      31.398  13.335  12.196  0.00  0.00    -0.274 OA
BRANCH  23  27
ATOM     27  CA  ASP A   1      32.410  14.607  13.926  0.00  0.00    +0.156 C 
BRANCH  27  28
ATOM     28  N   ASP A   1      33.655  13.874  14.125  0.00  0.00    -0.238 NA
ATOM     29  H   ASP A   1      34.356  13.852  13.357  0.00  0.00    +0.142 HD
ENDBRANCH  27  28
BRANCH  27  30
ATOM     30  CB  ASP A   1      32.600  15.689  12.862  0.00  0.00    +0.140 C 
BRANCH  30  31
ATOM     31  CG  ASP A   1      31.408  16.619  12.763  0.00  0.00    +0.367 C 
ATOM     32  OD2 ASP A   1      30.268  16.147  12.988  0.00  0.00    -0.246 OA
ATOM     33  OD1 ASP A   1      31.613  17.814  12.452  0.00  0.00    -0.246 OA
ENDBRANCH  30  31
ENDBRANCH  27  30
ENDBRANCH  23  27
ENDBRANCH  22  24
BRANCH  22  34
ATOM     34  CB  ARG A   2      29.095  11.997  12.642  0.00  0.00    +0.033 C 
BRANCH  34  35
ATOM     35  CG  ARG A   2      27.939  12.946  12.651  0.00  0.00    +0.045 C 
BRANCH  35  36
ATOM     36  CD  ARG A   2      27.127  12.753  11.381  0.00  0.00    +0.174 C 
BRANCH  36  37
ATOM     37  NE  ARG A   2      25.857  13.465  11.418  0.00  0.00    -0.265 N 
ATOM     38  CZ  ARG A   2      24.941  13.341  12.375  0.00  0.00    +0.342 C 
ATOM     39  NH2 ARG A   2      25.143  12.526  13.404  0.00  0.00    -0.292 N 
ATOM     40 HH21 ARG A   2      24.420  12.437  14.146  0.00  0.00    +0.255 HD
ATOM     41 HH22 ARG A   2      26.024  11.977  13.467  0.00  0.00    +0.255 HD
ATOM     42  NH1 ARG A   2      23.809  14.031  12.290  0.00  0.00    -0.292 N 
ATOM     43 HH11 ARG A   2      23.088  13.940  13.034  0.00  0.00    +0.255 HD
ATOM     44 HH12 ARG A   2      23.644  14.662  11.480  0.00  0.00    +0.255 HD
ATOM     45  HE  ARG A   2      25.650  14.120  10.637  0.00  0.00    +0.259 HD
ENDBRANCH  36  37
ENDBRANCH  35  36
ENDBRANCH  34  35
ENDBRANCH  22  34
ENDBRANCH  18  22
ENDBRANCH  17  19
BRANCH  17  46
ATOM     46  CB  TYR A   3      31.644   7.912  15.525  0.00  0.00    +0.055 C 
BRANCH  46  47
ATOM     47  CG  TYR A   3      32.685   6.838  15.345  0.00  0.00    -0.020 A 
ATOM     48  CD2 TYR A   3      33.082   6.039  16.410  0.00  0.00    -0.001 A 
ATOM     49  CE2 TYR A   3      34.035   5.039  16.242  0.00  0.00    +0.036 A 
ATOM     50  CZ  TYR A   3      34.598   4.833  15.004  0.00  0.00    +0.134 A 
ATOM     51  CE1 TYR A   3      34.218   5.612  13.923  0.00  0.00    +0.036 A 
ATOM     52  CD1 TYR A   3      33.268   6.611  14.104  0.00  0.00    -0.001 A 
BRANCH  50  53
ATOM     53  OH  TYR A   3      35.579   3.882  14.849  0.00  0.00    -0.506 OA
ATOM     54  HH  TYR A   3      35.220   2.995  15.102  0.00  0.00    +0.292 HD
ENDBRANCH  50  53
ENDBRANCH  46  47
ENDBRANCH  17  46
ENDBRANCH  13  17
ENDBRANCH  12  14
BRANCH  12  55
ATOM     55  CB  VAL A   4      29.712   3.385  15.186  0.00  0.00    +0.027 C 
ATOM     56  CG2 VAL A   4      28.683   2.260  15.198  0.00  0.00    +0.002 C 
ATOM     57  CG1 VAL A   4      30.903   2.990  14.324  0.00  0.00    +0.002 C 
ENDBRANCH  12  55
ENDBRANCH   8  12
ENDBRANCH   6   9
ENDBRANCH   2   6
ENDBRANCH   1   4
BRANCH   1  58
ATOM     58  C   SER A   6      24.151   7.055  13.591  0.00  0.00    +0.243 C 
ATOM     59  O   SER A   6      22.947   7.286  13.438  0.00  0.00    -0.273 OA
ATOM     60  N   ASN A   7      24.746   5.968  13.113  0.00  0.00    -0.297 N 
ATOM     61  H   ASN A   7      25.767   5.839  13.264  0.00  0.00    +0.150 HD
BRANCH  60  62
ATOM     62  CA  ASN A   7      24.000   4.952  12.382  0.00  0.00    +0.158 C 
BRANCH  62  63
ATOM     63  C   ASN A   7      22.897   4.320  13.254  0.00  0.00    +0.241 C 
ATOM     64  N   ALA A   8      23.202   4.125  14.534  0.00  0.00    -0.297 N 
ATOM     65  H   ALA A   8      24.150   4.393  14.868  0.00  0.00    +0.150 HD
ATOM     66  O   ASN A   7      21.807   4.019  12.773  0.00  0.00    -0.273 OA
BRANCH  64  67
ATOM     67  CA  ALA A   8      22.265   3.554  15.483  0.00  0.00    +0.149 C 
ATOM     68  CB  ALA A   8      22.979   3.245  16.790  0.00  0.00    +0.031 C 
BRANCH  67  69
ATOM     69  C   ALA A   8      21.116   4.518  15.733  0.00  0.00    +0.241 C 
ATOM     70  N   ALA A   9      21.467   5.755  16.075  0.00  0.00    -0.297 N 
ATOM     71  H   ALA A   9      22.479   5.988  16.138  0.00  0.00    +0.150 HD
ATOM     72  O   ALA A   8      19.944   4.155  15.610  0.00  0.00    -0.273 OA
BRANCH  70  73
ATOM     73  CA  ALA A   9      20.487   6.799  16.366  0.00  0.00    +0.149 C 
ATOM     74  CB  ALA A   9      21.205   8.087  16.781  0.00  0.00    +0.031 C 
BRANCH  73  75
ATOM     75  C   ALA A   9      19.521   7.089  15.213  0.00  0.00    +0.241 C 
ATOM     76  O   ALA A   9      18.300   7.092  15.413  0.00  0.00    -0.273 OA
ATOM     77  N   TYR A  10      20.057   7.325  14.011  0.00  0.00    -0.297 N 
ATOM     78  H   TYR A  10      21.090   7.297  13.894  0.00  0.00    +0.150 HD
BRANCH  77  79
ATOM     79  CA  TYR A  10      19.207   7.621  12.862  0.00  0.00    +0.153 C 
BRANCH  79  80
ATOM     80  C   TYR A  10      18.428   6.419  12.326  0.00  0.00    +0.241 C 
ATOM     81  N   SER A  11      19.090   5.269  12.232  0.00  0.00    -0.295 N 
ATOM     82  H   SER A  11      20.092   5.229  12.507  0.00  0.00    +0.150 HD
ATOM     83  O   TYR A  10      17.233   6.538  12.002  0.00  0.00    -0.273 OA
BRANCH  81  84
ATOM     84  CA  SER A  11      18.427   4.061  11.747  0.00  0.00    +0.178 C 
BRANCH  84  85
ATOM     85  C   SER A  11      17.277   3.717  12.692  0.00  0.00    +0.243 C 
ATOM     86  N   ALA A  12      17.568   3.706  13.989  0.00  0.00    -0.298 N 
ATOM     87  H   ALA A  12      18.538   3.920  14.297  0.00  0.00    +0.150 HD
ATOM     88  O   SER A  11      16.154   3.474  12.264  0.00  0.00    -0.273 OA
BRANCH  86  89
ATOM     89  CA  ALA A  12      16.553   3.400  14.985  0.00  0.00    +0.137 C 
ATOM     90  CB  ALA A  12      17.172   3.438  16.376  0.00  0.00    +0.030 C 
BRANCH  89  91
ATOM     91  C   ALA A  12      15.395   4.402  14.878  0.00  0.00    +0.227 C 
ATOM     92  O   ALA A  12      14.236   4.014  14.828  0.00  0.00    -0.286 OA
ENDBRANCH  89  91
ENDBRANCH  86  89
ENDBRANCH  84  85
BRANCH  84  93
ATOM     93  CB  SER A  11      19.415   2.892  11.684  0.00  0.00    +0.166 C 
BRANCH  93  94
ATOM     94  OG  SER A  11      20.444   3.143  10.741  0.00  0.00    -0.380 OA
ATOM     95  H   SER A  11      20.044   3.269   9.844  0.00  0.00    +0.211 HD
ENDBRANCH  93  94
ENDBRANCH  84  93
ENDBRANCH  81  84
ENDBRANCH  79  80
BRANCH  79  96
ATOM     96  CB  TYR A  10      20.022   8.269  11.732  0.00  0.00    +0.055 C 
BRANCH  96  97
ATOM     97  CG  TYR A  10      20.339   9.729  11.997  0.00  0.00    -0.020 A 
ATOM     98  CD2 TYR A  10      21.391  10.097  12.846  0.00  0.00    -0.001 A 
ATOM     99  CE2 TYR A  10      21.644  11.447  13.147  0.00  0.00    +0.036 A 
ATOM    100  CZ  TYR A  10      20.839  12.438  12.594  0.00  0.00    +0.134 A 
ATOM    101  CE1 TYR A  10      19.792  12.099  11.743  0.00  0.00    +0.036 A 
ATOM    102  CD1 TYR A  10      19.547  10.746  11.448  0.00  0.00    -0.001 A 
BRANCH 100 103
ATOM    103  OH  TYR A  10      21.060  13.767  12.913  0.00  0.00    -0.506 OA
ATOM    104  HH  TYR A  10      21.245  14.278  12.085  0.00  0.00    +0.292 HD
ENDBRANCH 100 103
ENDBRANCH  96  97
ENDBRANCH  79  96
ENDBRANCH  77  79
ENDBRANCH  73  75
ENDBRANCH  70  73
ENDBRANCH  67  69
ENDBRANCH  64  67
ENDBRANCH  62  63
BRANCH  62 105
ATOM    105  CB  ASN A   7      24.956   3.870  11.888  0.00  0.00    +0.114 C 
BRANCH 105 106
ATOM    106  CG  ASN A   7      24.990   3.774  10.379  0.00  0.00    +0.222 C 
ATOM    107  ND2 ASN A   7      25.776   2.832   9.867  0.00  0.00    -0.329 N 
ATOM    108 HD21 ASN A   7      26.322   2.211  10.498  0.00  0.00    +0.145 HD
ATOM    109 HD22 ASN A   7      25.845   2.716   8.836  0.00  0.00    +0.145 HD
ATOM    110  OD1 ASN A   7      24.323   4.535   9.679  0.00  0.00    -0.275 OA
ENDBRANCH 105 106
ENDBRANCH  62 105
ENDBRANCH  60  62
ENDBRANCH   1  58
BRANCH   1 111
ATOM    111  CB  SER A   6      25.809   8.928  13.405  0.00  0.00    +0.166 C 
BRANCH 111 112
ATOM    112  OG  SER A   6      26.290  10.083  14.072  0.00  0.00    -0.380 OA
ATOM    113  H   SER A   6      26.894   9.810  14.808  0.00  0.00    +0.211 HD
ENDBRANCH 111 112
ENDBRANCH   1 111
TORSDOF 43
REMARK  Name = ../refined-set-2016/1mrn/1mrn_pocket.pdb
REMARK  283 active torsions:
REMARK  status: ('A' for Active; 'I' for Inactive)
REMARK    1  A    between atoms: _1  and  _3
REMARK    2  A    between atoms: _3  and  _4
REMARK    3  A    between atoms: _3  and  _6
REMARK    4  A    between atoms: _6  and  _7
REMARK    5  A    between atoms: _7  and  _8
REMARK    6  A    between atoms: _11  and  _13
REMARK    7  A    between atoms: _13  and  _14
REMARK    8  A    between atoms: _16  and  _18
REMARK    9  A    between atoms: _18  and  _19
REMARK   10  A    between atoms: _18  and  _21
REMARK   11  A    between atoms: _24  and  _26
REMARK   12  A    between atoms: _26  and  _27
REMARK   13  A    between atoms: _26  and  _29
REMARK   14  A    between atoms: _29  and  _30
REMARK   15  A    between atoms: _30  and  _31
REMARK   16  A    between atoms: _31  and  MG_715
REMARK   17  A    between atoms: _33  and  _35
REMARK   18  A    between atoms: _35  and  _36
REMARK   19  A    between atoms: _38  and  _40
REMARK   20  A    between atoms: _40  and  _41
REMARK   21  A    between atoms: _44  and  _46
REMARK   22  A    between atoms: _46  and  _47
REMARK   23  A    between atoms: _46  and  _49
REMARK   24  A    between atoms: _49  and  _50
REMARK   25  A    between atoms: _50  and  _51
REMARK   26  A    between atoms: _51  and  _52
REMARK   27  A    between atoms: _52  and  _53
REMARK   28  A    between atoms: _57  and  _59
REMARK   29  A    between atoms: _59  and  _60
REMARK   30  A    between atoms: _59  and  _62
REMARK   31  A    between atoms: _62  and  _63
REMARK   32  A    between atoms: _63  and  _64
REMARK   33  A    between atoms: _64  and  _65
REMARK   34  A    between atoms: _74  and  _76
REMARK   35  A    between atoms: _76  and  _77
REMARK   36  A    between atoms: _80  and  _82
REMARK   37  A    between atoms: _82  and  _83
REMARK   38  A    between atoms: _82  and  _85
REMARK   39  A    between atoms: _85  and  _86
REMARK   40  A    between atoms: _93  and  _94
REMARK   41  A    between atoms: _99  and  _101
REMARK   42  A    between atoms: _101  and  _102
REMARK   43  A    between atoms: _101  and  _104
REMARK   44  A    between atoms: _104  and  _105
REMARK   45  A    between atoms: _105  and  _106
REMARK   46  A    between atoms: _106  and  _107
REMARK   47  A    between atoms: _116  and  _118
REMARK   48  A    between atoms: _118  and  _119
REMARK   49  A    between atoms: _118  and  _121
REMARK   50  A    between atoms: _121  and  _122
REMARK   51  A    between atoms: _127  and  _128
REMARK   52  A    between atoms: _130  and  _132
REMARK   53  A    between atoms: _132  and  _133
REMARK   54  A    between atoms: _135  and  _137
REMARK   55  A    between atoms: _137  and  _138
REMARK   56  A    between atoms: _137  and  _140
REMARK   57  A    between atoms: _140  and  _141
REMARK   58  A    between atoms: _143  and  _145
REMARK   59  A    between atoms: _145  and  _146
REMARK   60  A    between atoms: _145  and  _148
REMARK   61  A    between atoms: _151  and  _153
REMARK   62  A    between atoms: _153  and  _154
REMARK   63  A    between atoms: _157  and  _159
REMARK   64  A    between atoms: _159  and  _160
REMARK   65  A    between atoms: _159  and  _162
REMARK   66  A    between atoms: _162  and  _163
REMARK   67  A    between atoms: _166  and  _168
REMARK   68  A    between atoms: _168  and  _169
REMARK   69  A    between atoms: _168  and  _171
REMARK   70  A    between atoms: _171  and  _172
REMARK   71  A    between atoms: _175  and  _177
REMARK   72  A    between atoms: _177  and  _178
REMARK   73  A    between atoms: _181  and  _183
REMARK   74  A    between atoms: _183  and  _184
REMARK   75  A    between atoms: _187  and  _189
REMARK   76  A    between atoms: _189  and  _190
REMARK   77  A    between atoms: _189  and  _192
REMARK   78  A    between atoms: _192  and  _193
REMARK   79  A    between atoms: _193  and  _194
REMARK   80  A    between atoms: _197  and  _199
REMARK   81  A    between atoms: _199  and  _200
REMARK   82  A    between atoms: _203  and  _205
REMARK   83  A    between atoms: _205  and  _206
REMARK   84  A    between atoms: _205  and  _208
REMARK   85  A    between atoms: _208  and  _209
REMARK   86  A    between atoms: _212  and  _214
REMARK   87  A    between atoms: _214  and  _215
REMARK   88  A    between atoms: _214  and  _217
REMARK   89  A    between atoms: _217  and  _218
REMARK   90  A    between atoms: _223  and  _225
REMARK   91  A    between atoms: _225  and  _226
REMARK   92  A    between atoms: _228  and  _230
REMARK   93  A    between atoms: _230  and  _231
REMARK   94  A    between atoms: _230  and  _233
REMARK   95  A    between atoms: _233  and  _234
REMARK   96  A    between atoms: _234  and  _235
REMARK   97  A    between atoms: _238  and  _240
REMARK   98  A    between atoms: _240  and  _241
REMARK   99  A    between atoms: _240  and  _243
REMARK  100  A    between atoms: _243  and  _244
REMARK  101  A    between atoms: _249  and  _251
REMARK  102  A    between atoms: _251  and  _252
REMARK  103  A    between atoms: _251  and  _254
REMARK  104  A    between atoms: _257  and  _259
REMARK  105  A    between atoms: _259  and  _260
REMARK  106  A    between atoms: _259  and  _262
REMARK  107  A    between atoms: _262  and  _263
REMARK  108  A    between atoms: _263  and  _264
REMARK  109  A    between atoms: _266  and  _268
REMARK  110  A    between atoms: _268  and  _269
REMARK  111  A    between atoms: _272  and  _274
REMARK  112  A    between atoms: _274  and  _275
REMARK  113  A    between atoms: _274  and  _277
REMARK  114  A    between atoms: _277  and  _278
REMARK  115  A    between atoms: _281  and  _283
REMARK  116  A    between atoms: _283  and  _284
REMARK  117  A    between atoms: _283  and  _286
REMARK  118  A    between atoms: _286  and  _287
REMARK  119  A    between atoms: _290  and  _292
REMARK  120  A    between atoms: _292  and  _293
REMARK  121  A    between atoms: _292  and  _295
REMARK  122  A    between atoms: _295  and  _296
REMARK  123  A    between atoms: _302  and  _304
REMARK  124  A    between atoms: _304  and  _305
REMARK  125  A    between atoms: _308  and  _310
REMARK  126  A    between atoms: _310  and  _311
REMARK  127  A    between atoms: _310  and  _313
REMARK  128  A    between atoms: _313  and  _314
REMARK  129  A    between atoms: _317  and  _319
REMARK  130  A    between atoms: _319  and  _320
REMARK  131  A    between atoms: _319  and  _322
REMARK  132  A    between atoms: _322  and  _323
REMARK  133  A    between atoms: _323  and  _324
REMARK  134  A    between atoms: _324  and  _325
REMARK  135  A    between atoms: _334  and  _336
REMARK  136  A    between atoms: _336  and  _337
REMARK  137  A    between atoms: _336  and  _339
REMARK  138  A    between atoms: _339  and  _340
REMARK  139  A    between atoms: _343  and  _345
REMARK  140  A    between atoms: _345  and  _346
REMARK  141  A    between atoms: _345  and  _348
REMARK  142  A    between atoms: _348  and  _349
REMARK  143  A    between atoms: _349  and  _350
REMARK  144  A    between atoms: _350  and  _351
REMARK  145  A    between atoms: _360  and  _362
REMARK  146  A    between atoms: _362  and  _363
REMARK  147  A    between atoms: _362  and  _365
REMARK  148  A    between atoms: _365  and  _366
REMARK  149  A    between atoms: _371  and  _372
REMARK  150  A    between atoms: _374  and  _376
REMARK  151  A    between atoms: _376  and  _377
REMARK  152  A    between atoms: _376  and  _379
REMARK  153  A    between atoms: _382  and  _384
REMARK  154  A    between atoms: _384  and  _385
REMARK  155  A    between atoms: _388  and  _390
REMARK  156  A    between atoms: _390  and  _391
REMARK  157  A    between atoms: _390  and  _393
REMARK  158  A    between atoms: _393  and  _394
REMARK  159  A    between atoms: _396  and  _398
REMARK  160  A    between atoms: _398  and  _399
REMARK  161  A    between atoms: _398  and  _401
REMARK  162  A    between atoms: _401  and  _402
REMARK  163  A    between atoms: _407  and  _409
REMARK  164  A    between atoms: _409  and  _410
REMARK  165  A    between atoms: _413  and  _415
REMARK  166  A    between atoms: _415  and  _416
REMARK  167  A    between atoms: _419  and  _421
REMARK  168  A    between atoms: _421  and  _422
REMARK  169  A    between atoms: _421  and  _424
REMARK  170  A    between atoms: _424  and  _425
REMARK  171  A    between atoms: _430  and  _431
REMARK  172  A    between atoms: _433  and  _435
REMARK  173  A    between atoms: _435  and  _436
REMARK  174  A    between atoms: _435  and  _438
REMARK  175  A    between atoms: _438  and  _439
REMARK  176  A    between atoms: _441  and  _443
REMARK  177  A    between atoms: _443  and  _444
REMARK  178  A    between atoms: _447  and  _449
REMARK  179  A    between atoms: _449  and  _450
REMARK  180  A    between atoms: _449  and  _452
REMARK  181  A    between atoms: _452  and  _453
REMARK  182  A    between atoms: _453  and  _454
REMARK  183  A    between atoms: _454  and  _455
REMARK  184  A    between atoms: _464  and  _466
REMARK  185  A    between atoms: _466  and  _467
REMARK  186  A    between atoms: _466  and  _469
REMARK  187  A    between atoms: _472  and  _474
REMARK  188  A    between atoms: _474  and  _475
REMARK  189  A    between atoms: _474  and  _477
REMARK  190  A    between atoms: _477  and  _478
REMARK  191  A    between atoms: _478  and  _479
REMARK  192  A    between atoms: _482  and  _484
REMARK  193  A    between atoms: _484  and  _485
REMARK  194  A    between atoms: _484  and  _487
REMARK  195  A    between atoms: _487  and  _488
REMARK  196  A    between atoms: _490  and  _492
REMARK  197  A    between atoms: _492  and  _493
REMARK  198  A    between atoms: _492  and  _495
REMARK  199  A    between atoms: _495  and  _496
REMARK  200  A    between atoms: _496  and  _497
REMARK  201  A    between atoms: _497  and  _498
REMARK  202  A    between atoms: _507  and  _509
REMARK  203  A    between atoms: _509  and  _510
REMARK  204  A    between atoms: _513  and  _515
REMARK  205  A    between atoms: _515  and  _516
REMARK  206  A    between atoms: _515  and  _518
REMARK  207  A    between atoms: _518  and  _519
REMARK  208  A    between atoms: _519  and  _520
REMARK  209  A    between atoms: _520  and  _521
REMARK  210  A    between atoms: _530  and  _532
REMARK  211  A    between atoms: _532  and  _533
REMARK  212  A    between atoms: _532  and  _535
REMARK  213  A    between atoms: _535  and  _536
REMARK  214  A    between atoms: _539  and  _541
REMARK  215  A    between atoms: _541  and  _542
REMARK  216  A    between atoms: _544  and  _546
REMARK  217  A    between atoms: _546  and  _547
REMARK  218  A    between atoms: _546  and  _549
REMARK  219  A    between atoms: _549  and  _550
REMARK  220  A    between atoms: _550  and  _551
REMARK  221  A    between atoms: _551  and  _552
REMARK  222  A    between atoms: _561  and  _563
REMARK  223  A    between atoms: _563  and  _564
REMARK  224  A    between atoms: _567  and  _569
REMARK  225  A    between atoms: _569  and  _570
REMARK  226  A    between atoms: _569  and  _572
REMARK  227  A    between atoms: _572  and  _573
REMARK  228  A    between atoms: _573  and  _574
REMARK  229  A    between atoms: _574  and  _575
REMARK  230  A    between atoms: _584  and  _586
REMARK  231  A    between atoms: _586  and  _587
REMARK  232  A    between atoms: _586  and  _589
REMARK  233  A    between atoms: _589  and  _590
REMARK  234  A    between atoms: _593  and  _595
REMARK  235  A    between atoms: _595  and  _596
REMARK  236  A    between atoms: _595  and  _598
REMARK  237  A    between atoms: _598  and  _599
REMARK  238  A    between atoms: _604  and  _606
REMARK  239  A    between atoms: _606  and  _607
REMARK  240  A    between atoms: _606  and  _609
REMARK  241  A    between atoms: _609  and  _610
REMARK  242  A    between atoms: _615  and  _616
REMARK  243  A    between atoms: _618  and  _620
REMARK  244  A    between atoms: _620  and  _621
REMARK  245  A    between atoms: _620  and  _623
REMARK  246  A    between atoms: _623  and  _624
REMARK  247  A    between atoms: _624  and  _625
REMARK  248  A    between atoms: _625  and  _627
REMARK  249  A    between atoms: _627  and  MG_715
REMARK  250  A    between atoms: _628  and  _630
REMARK  251  A    between atoms: _630  and  _631
REMARK  252  A    between atoms: _630  and  _633
REMARK  253  A    between atoms: _633  and  _634
REMARK  254  A    between atoms: _634  and  _635
REMARK  255  A    between atoms: _635  and  _636
REMARK  256  A    between atoms: _645  and  _647
REMARK  257  A    between atoms: _647  and  _648
REMARK  258  A    between atoms: _647  and  _650
REMARK  259  A    between atoms: _650  and  _651
REMARK  260  A    between atoms: _654  and  _656
REMARK  261  A    between atoms: _656  and  _657
REMARK  262  A    between atoms: _656  and  _659
REMARK  263  A    between atoms: _659  and  _660
REMARK  264  A    between atoms: _663  and  _665
REMARK  265  A    between atoms: _665  and  _666
REMARK  266  A    between atoms: _665  and  _668
REMARK  267  A    between atoms: _668  and  _669
REMARK  268  A    between atoms: _669  and  _670
REMARK  269  A    between atoms: _675  and  _677
REMARK  270  A    between atoms: _677  and  _678
REMARK  271  A    between atoms: _677  and  _680
REMARK  272  A    between atoms: _680  and  _681
REMARK  273  A    between atoms: _684  and  _686
REMARK  274  A    between atoms: _686  and  _687
REMARK  275  A    between atoms: _686  and  _689
REMARK  276  A    between atoms: _689  and  _690
REMARK  277  A    between atoms: _695  and  _696
REMARK  278  A    between atoms: _698  and  _700
REMARK  279  A    between atoms: _700  and  _701
REMARK  280  A    between atoms: _700  and  _703
REMARK  281  A    between atoms: _703  and  _704
REMARK  282  A    between atoms: _704  and  _705
REMARK  283  A    between atoms: _705  and  _706
REMARK                            x       y       z     vdW  Elec       q    Type
REMARK                         _______ _______ _______ _____ _____    ______ ____
ROOT
ATOM      1  NE  ARG A   1      15.237   6.251   6.945  0.00  0.00    -0.265 N 
ATOM      2  HE  ARG A   1      14.222   6.193   7.166  0.00  0.00    +0.259 HD
ATOM      3  CZ  ARG A   1      15.607   6.075   5.674  0.00  0.00    +0.342 C 
ATOM      4  NH2 ARG A   1      16.883   6.137   5.330  0.00  0.00    -0.292 N 
ATOM      5 HH21 ARG A   1      17.608   6.324   6.052  0.00  0.00    +0.255 HD
ATOM      6 HH22 ARG A   1      17.161   5.999   4.338  0.00  0.00    +0.255 HD
ATOM      7  NH1 ARG A   1      14.700   5.840   4.739  0.00  0.00    -0.292 N 
ATOM      8 HH11 ARG A   1      13.692   5.792   4.992  0.00  0.00    +0.255 HD
ATOM      9 HH12 ARG A   1      14.995   5.704   3.751  0.00  0.00    +0.255 HD
ENDROOT
BRANCH   1  10
ATOM     10  CD  ARG A   1      16.159   6.519   8.047  0.00  0.00    +0.174 C 
BRANCH  10  11
ATOM     11  CG  ARG A   1      15.444   6.899   9.344  0.00  0.00    +0.045 C 
BRANCH  11  12
ATOM     12  CB  ARG A   1      14.663   5.726   9.913  0.00  0.00    +0.029 C 
BRANCH  12  13
ATOM     13  CA  ARG A   1      13.725   6.044  11.093  0.00  0.00    +0.133 C 
BRANCH  13  14
ATOM     14  N   ARG A   1      14.463   6.206  12.347  0.00  0.00    -0.239 NA
ATOM     15  H   ARG A   1      15.483   6.005  12.367  0.00  0.00    +0.142 HD
ENDBRANCH  13  14
BRANCH  13  16
ATOM     16  C   ARG A   1      12.713   4.916  11.195  0.00  0.00    +0.224 C 
ATOM     17  O   ARG A   1      11.698   4.929  10.512  0.00  0.00    -0.287 OA
ENDBRANCH  13  16
ENDBRANCH  12  13
ENDBRANCH  11  12
ENDBRANCH  10  11
ENDBRANCH   1  10
TORSDOF 6
REMARK  Name = ../refined-set-2016/1mrn/1mrn_pocket.pdb
REMARK  283 active torsions:
REMARK  status: ('A' for Active; 'I' for Inactive)
REMARK    1  A    between atoms: _1  and  _3
REMARK    2  A    between atoms: _3  and  _4
REMARK    3  A    between atoms: _3  and  _6
REMARK    4  A    between atoms: _6  and  _7
REMARK    5  A    between atoms: _7  and  _8
REMARK    6  A    between atoms: _11  and  _13
REMARK    7  A    between atoms: _13  and  _14
REMARK    8  A    between atoms: _16  and  _18
REMARK    9  A    between atoms: _18  and  _19
REMARK   10  A    between atoms: _18  and  _21
REMARK   11  A    between atoms: _24  and  _26
REMARK   12  A    between atoms: _26  and  _27
REMARK   13  A    between atoms: _26  and  _29
REMARK   14  A    between atoms: _29  and  _30
REMARK   15  A    between atoms: _30  and  _31
REMARK   16  A    between atoms: _31  and  MG_715
REMARK   17  A    between atoms: _33  and  _35
REMARK   18  A    between atoms: _35  and  _36
REMARK   19  A    between atoms: _38  and  _40
REMARK   20  A    between atoms: _40  and  _41
REMARK   21  A    between atoms: _44  and  _46
REMARK   22  A    between atoms: _46  and  _47
REMARK   23  A    between atoms: _46  and  _49
REMARK   24  A    between atoms: _49  and  _50
REMARK   25  A    between atoms: _50  and  _51
REMARK   26  A    between atoms: _51  and  _52
REMARK   27  A    between atoms: _52  and  _53
REMARK   28  A    between atoms: _57  and  _59
REMARK   29  A    between atoms: _59  and  _60
REMARK   30  A    between atoms: _59  and  _62
REMARK   31  A    between atoms: _62  and  _63
REMARK   32  A    between atoms: _63  and  _64
REMARK   33  A    between atoms: _64  and  _65
REMARK   34  A    between atoms: _74  and  _76
REMARK   35  A    between atoms: _76  and  _77
REMARK   36  A    between atoms: _80  and  _82
REMARK   37  A    between atoms: _82  and  _83
REMARK   38  A    between atoms: _82  and  _85
REMARK   39  A    between atoms: _85  and  _86
REMARK   40  A    between atoms: _93  and  _94
REMARK   41  A    between atoms: _99  and  _101
REMARK   42  A    between atoms: _101  and  _102
REMARK   43  A    between atoms: _101  and  _104
REMARK   44  A    between atoms: _104  and  _105
REMARK   45  A    between atoms: _105  and  _106
REMARK   46  A    between atoms: _106  and  _107
REMARK   47  A    between atoms: _116  and  _118
REMARK   48  A    between atoms: _118  and  _119
REMARK   49  A    between atoms: _118  and  _121
REMARK   50  A    between atoms: _121  and  _122
REMARK   51  A    between atoms: _127  and  _128
REMARK   52  A    between atoms: _130  and  _132
REMARK   53  A    between atoms: _132  and  _133
REMARK   54  A    between atoms: _135  and  _137
REMARK   55  A    between atoms: _137  and  _138
REMARK   56  A    between atoms: _137  and  _140
REMARK   57  A    between atoms: _140  and  _141
REMARK   58  A    between atoms: _143  and  _145
REMARK   59  A    between atoms: _145  and  _146
REMARK   60  A    between atoms: _145  and  _148
REMARK   61  A    between atoms: _151  and  _153
REMARK   62  A    between atoms: _153  and  _154
REMARK   63  A    between atoms: _157  and  _159
REMARK   64  A    between atoms: _159  and  _160
REMARK   65  A    between atoms: _159  and  _162
REMARK   66  A    between atoms: _162  and  _163
REMARK   67  A    between atoms: _166  and  _168
REMARK   68  A    between atoms: _168  and  _169
REMARK   69  A    between atoms: _168  and  _171
REMARK   70  A    between atoms: _171  and  _172
REMARK   71  A    between atoms: _175  and  _177
REMARK   72  A    between atoms: _177  and  _178
REMARK   73  A    between atoms: _181  and  _183
REMARK   74  A    between atoms: _183  and  _184
REMARK   75  A    between atoms: _187  and  _189
REMARK   76  A    between atoms: _189  and  _190
REMARK   77  A    between atoms: _189  and  _192
REMARK   78  A    between atoms: _192  and  _193
REMARK   79  A    between atoms: _193  and  _194
REMARK   80  A    between atoms: _197  and  _199
REMARK   81  A    between atoms: _199  and  _200
REMARK   82  A    between atoms: _203  and  _205
REMARK   83  A    between atoms: _205  and  _206
REMARK   84  A    between atoms: _205  and  _208
REMARK   85  A    between atoms: _208  and  _209
REMARK   86  A    between atoms: _212  and  _214
REMARK   87  A    between atoms: _214  and  _215
REMARK   88  A    between atoms: _214  and  _217
REMARK   89  A    between atoms: _217  and  _218
REMARK   90  A    between atoms: _223  and  _225
REMARK   91  A    between atoms: _225  and  _226
REMARK   92  A    between atoms: _228  and  _230
REMARK   93  A    between atoms: _230  and  _231
REMARK   94  A    between atoms: _230  and  _233
REMARK   95  A    between atoms: _233  and  _234
REMARK   96  A    between atoms: _234  and  _235
REMARK   97  A    between atoms: _238  and  _240
REMARK   98  A    between atoms: _240  and  _241
REMARK   99  A    between atoms: _240  and  _243
REMARK  100  A    between atoms: _243  and  _244
REMARK  101  A    between atoms: _249  and  _251
REMARK  102  A    between atoms: _251  and  _252
REMARK  103  A    between atoms: _251  and  _254
REMARK  104  A    between atoms: _257  and  _259
REMARK  105  A    between atoms: _259  and  _260
REMARK  106  A    between atoms: _259  and  _262
REMARK  107  A    between atoms: _262  and  _263
REMARK  108  A    between atoms: _263  and  _264
REMARK  109  A    between atoms: _266  and  _268
REMARK  110  A    between atoms: _268  and  _269
REMARK  111  A    between atoms: _272  and  _274
REMARK  112  A    between atoms: _274  and  _275
REMARK  113  A    between atoms: _274  and  _277
REMARK  114  A    between atoms: _277  and  _278
REMARK  115  A    between atoms: _281  and  _283
REMARK  116  A    between atoms: _283  and  _284
REMARK  117  A    between atoms: _283  and  _286
REMARK  118  A    between atoms: _286  and  _287
REMARK  119  A    between atoms: _290  and  _292
REMARK  120  A    between atoms: _292  and  _293
REMARK  121  A    between atoms: _292  and  _295
REMARK  122  A    between atoms: _295  and  _296
REMARK  123  A    between atoms: _302  and  _304
REMARK  124  A    between atoms: _304  and  _305
REMARK  125  A    between atoms: _308  and  _310
REMARK  126  A    between atoms: _310  and  _311
REMARK  127  A    between atoms: _310  and  _313
REMARK  128  A    between atoms: _313  and  _314
REMARK  129  A    between atoms: _317  and  _319
REMARK  130  A    between atoms: _319  and  _320
REMARK  131  A    between atoms: _319  and  _322
REMARK  132  A    between atoms: _322  and  _323
REMARK  133  A    between atoms: _323  and  _324
REMARK  134  A    between atoms: _324  and  _325
REMARK  135  A    between atoms: _334  and  _336
REMARK  136  A    between atoms: _336  and  _337
REMARK  137  A    between atoms: _336  and  _339
REMARK  138  A    between atoms: _339  and  _340
REMARK  139  A    between atoms: _343  and  _345
REMARK  140  A    between atoms: _345  and  _346
REMARK  141  A    between atoms: _345  and  _348
REMARK  142  A    between atoms: _348  and  _349
REMARK  143  A    between atoms: _349  and  _350
REMARK  144  A    between atoms: _350  and  _351
REMARK  145  A    between atoms: _360  and  _362
REMARK  146  A    between atoms: _362  and  _363
REMARK  147  A    between atoms: _362  and  _365
REMARK  148  A    between atoms: _365  and  _366
REMARK  149  A    between atoms: _371  and  _372
REMARK  150  A    between atoms: _374  and  _376
REMARK  151  A    between atoms: _376  and  _377
REMARK  152  A    between atoms: _376  and  _379
REMARK  153  A    between atoms: _382  and  _384
REMARK  154  A    between atoms: _384  and  _385
REMARK  155  A    between atoms: _388  and  _390
REMARK  156  A    between atoms: _390  and  _391
REMARK  157  A    between atoms: _390  and  _393
REMARK  158  A    between atoms: _393  and  _394
REMARK  159  A    between atoms: _396  and  _398
REMARK  160  A    between atoms: _398  and  _399
REMARK  161  A    between atoms: _398  and  _401
REMARK  162  A    between atoms: _401  and  _402
REMARK  163  A    between atoms: _407  and  _409
REMARK  164  A    between atoms: _409  and  _410
REMARK  165  A    between atoms: _413  and  _415
REMARK  166  A    between atoms: _415  and  _416
REMARK  167  A    between atoms: _419  and  _421
REMARK  168  A    between atoms: _421  and  _422
REMARK  169  A    between atoms: _421  and  _424
REMARK  170  A    between atoms: _424  and  _425
REMARK  171  A    between atoms: _430  and  _431
REMARK  172  A    between atoms: _433  and  _435
REMARK  173  A    between atoms: _435  and  _436
REMARK  174  A    between atoms: _435  and  _438
REMARK  175  A    between atoms: _438  and  _439
REMARK  176  A    between atoms: _441  and  _443
REMARK  177  A    between atoms: _443  and  _444
REMARK  178  A    between atoms: _447  and  _449
REMARK  179  A    between atoms: _449  and  _450
REMARK  180  A    between atoms: _449  and  _452
REMARK  181  A    between atoms: _452  and  _453
REMARK  182  A    between atoms: _453  and  _454
REMARK  183  A    between atoms: _454  and  _455
REMARK  184  A    between atoms: _464  and  _466
REMARK  185  A    between atoms: _466  and  _467
REMARK  186  A    between atoms: _466  and  _469
REMARK  187  A    between atoms: _472  and  _474
REMARK  188  A    between atoms: _474  and  _475
REMARK  189  A    between atoms: _474  and  _477
REMARK  190  A    between atoms: _477  and  _478
REMARK  191  A    between atoms: _478  and  _479
REMARK  192  A    between atoms: _482  and  _484
REMARK  193  A    between atoms: _484  and  _485
REMARK  194  A    between atoms: _484  and  _487
REMARK  195  A    between atoms: _487  and  _488
REMARK  196  A    between atoms: _490  and  _492
REMARK  197  A    between atoms: _492  and  _493
REMARK  198  A    between atoms: _492  and  _495
REMARK  199  A    between atoms: _495  and  _496
REMARK  200  A    between atoms: _496  and  _497
REMARK  201  A    between atoms: _497  and  _498
REMARK  202  A    between atoms: _507  and  _509
REMARK  203  A    between atoms: _509  and  _510
REMARK  204  A    between atoms: _513  and  _515
REMARK  205  A    between atoms: _515  and  _516
REMARK  206  A    between atoms: _515  and  _518
REMARK  207  A    between atoms: _518  and  _519
REMARK  208  A    between atoms: _519  and  _520
REMARK  209  A    between atoms: _520  and  _521
REMARK  210  A    between atoms: _530  and  _532
REMARK  211  A    between atoms: _532  and  _533
REMARK  212  A    between atoms: _532  and  _535
REMARK  213  A    between atoms: _535  and  _536
REMARK  214  A    between atoms: _539  and  _541
REMARK  215  A    between atoms: _541  and  _542
REMARK  216  A    between atoms: _544  and  _546
REMARK  217  A    between atoms: _546  and  _547
REMARK  218  A    between atoms: _546  and  _549
REMARK  219  A    between atoms: _549  and  _550
REMARK  220  A    between atoms: _550  and  _551
REMARK  221  A    between atoms: _551  and  _552
REMARK  222  A    between atoms: _561  and  _563
REMARK  223  A    between atoms: _563  and  _564
REMARK  224  A    between atoms: _567  and  _569
REMARK  225  A    between atoms: _569  and  _570
REMARK  226  A    between atoms: _569  and  _572
REMARK  227  A    between atoms: _572  and  _573
REMARK  228  A    between atoms: _573  and  _574
REMARK  229  A    between atoms: _574  and  _575
REMARK  230  A    between atoms: _584  and  _586
REMARK  231  A    between atoms: _586  and  _587
REMARK  232  A    between atoms: _586  and  _589
REMARK  233  A    between atoms: _589  and  _590
REMARK  234  A    between atoms: _593  and  _595
REMARK  235  A    between atoms: _595  and  _596
REMARK  236  A    between atoms: _595  and  _598
REMARK  237  A    between atoms: _598  and  _599
REMARK  238  A    between atoms: _604  and  _606
REMARK  239  A    between atoms: _606  and  _607
REMARK  240  A    between atoms: _606  and  _609
REMARK  241  A    between atoms: _609  and  _610
REMARK  242  A    between atoms: _615  and  _616
REMARK  243  A    between atoms: _618  and  _620
REMARK  244  A    between atoms: _620  and  _621
REMARK  245  A    between atoms: _620  and  _623
REMARK  246  A    between atoms: _623  and  _624
REMARK  247  A    between atoms: _624  and  _625
REMARK  248  A    between atoms: _625  and  _627
REMARK  249  A    between atoms: _627  and  MG_715
REMARK  250  A    between atoms: _628  and  _630
REMARK  251  A    between atoms: _630  and  _631
REMARK  252  A    between atoms: _630  and  _633
REMARK  253  A    between atoms: _633  and  _634
REMARK  254  A    between atoms: _634  and  _635
REMARK  255  A    between atoms: _635  and  _636
REMARK  256  A    between atoms: _645  and  _647
REMARK  257  A    between atoms: _647  and  _648
REMARK  258  A    between atoms: _647  and  _650
REMARK  259  A    between atoms: _650  and  _651
REMARK  260  A    between atoms: _654  and  _656
REMARK  261  A    between atoms: _656  and  _657
REMARK  262  A    between atoms: _656  and  _659
REMARK  263  A    between atoms: _659  and  _660
REMARK  264  A    between atoms: _663  and  _665
REMARK  265  A    between atoms: _665  and  _666
REMARK  266  A    between atoms: _665  and  _668
REMARK  267  A    between atoms: _668  and  _669
REMARK  268  A    between atoms: _669  and  _670
REMARK  269  A    between atoms: _675  and  _677
REMARK  270  A    between atoms: _677  and  _678
REMARK  271  A    between atoms: _677  and  _680
REMARK  272  A    between atoms: _680  and  _681
REMARK  273  A    between atoms: _684  and  _686
REMARK  274  A    between atoms: _686  and  _687
REMARK  275  A    between atoms: _686  and  _689
REMARK  276  A    between atoms: _689  and  _690
REMARK  277  A    between atoms: _695  and  _696
REMARK  278  A    between atoms: _698  and  _700
REMARK  279  A    between atoms: _700  and  _701
REMARK  280  A    between atoms: _700  and  _703
REMARK  281  A    between atoms: _703  and  _704
REMARK  282  A    between atoms: _704  and  _705
REMARK  283  A    between atoms: _705  and  _706
REMARK                            x       y       z     vdW  Elec       q    Type
REMARK                         _______ _______ _______ _____ _____    ______ ____
ROOT
ATOM      1  CA  VAL A   1      24.877  -1.371  13.969  0.00  0.00    +0.133 C 
ENDROOT
BRANCH   1   2
ATOM      2  CB  VAL A   1      24.545   0.122  14.280  0.00  0.00    +0.023 C 
ATOM      3  CG2 VAL A   1      25.787   0.977  14.208  0.00  0.00    +0.002 C 
ATOM      4  CG1 VAL A   1      23.529   0.640  13.283  0.00  0.00    +0.002 C 
ENDBRANCH   1   2
BRANCH   1   5
ATOM      5  N   VAL A   1      23.718  -2.244  14.201  0.00  0.00    -0.239 NA
ATOM      6  H   VAL A   1      22.858  -1.842  14.627  0.00  0.00    +0.142 HD
ENDBRANCH   1   5
BRANCH   1   7
ATOM      7  C   VAL A   1      26.048  -1.825  14.848  0.00  0.00    +0.224 C 
ATOM      8  O   VAL A   1      27.197  -1.792  14.424  0.00  0.00    -0.287 OA
ENDBRANCH   1   7
TORSDOF 3
REMARK  Name = ../refined-set-2016/1mrn/1mrn_pocket.pdb
REMARK  283 active torsions:
REMARK  status: ('A' for Active; 'I' for Inactive)
REMARK    1  A    between atoms: _1  and  _3
REMARK    2  A    between atoms: _3  and  _4
REMARK    3  A    between atoms: _3  and  _6
REMARK    4  A    between atoms: _6  and  _7
REMARK    5  A    between atoms: _7  and  _8
REMARK    6  A    between atoms: _11  and  _13
REMARK    7  A    between atoms: _13  and  _14
REMARK    8  A    between atoms: _16  and  _18
REMARK    9  A    between atoms: _18  and  _19
REMARK   10  A    between atoms: _18  and  _21
REMARK   11  A    between atoms: _24  and  _26
REMARK   12  A    between atoms: _26  and  _27
REMARK   13  A    between atoms: _26  and  _29
REMARK   14  A    between atoms: _29  and  _30
REMARK   15  A    between atoms: _30  and  _31
REMARK   16  A    between atoms: _31  and  MG_715
REMARK   17  A    between atoms: _33  and  _35
REMARK   18  A    between atoms: _35  and  _36
REMARK   19  A    between atoms: _38  and  _40
REMARK   20  A    between atoms: _40  and  _41
REMARK   21  A    between atoms: _44  and  _46
REMARK   22  A    between atoms: _46  and  _47
REMARK   23  A    between atoms: _46  and  _49
REMARK   24  A    between atoms: _49  and  _50
REMARK   25  A    between atoms: _50  and  _51
REMARK   26  A    between atoms: _51  and  _52
REMARK   27  A    between atoms: _52  and  _53
REMARK   28  A    between atoms: _57  and  _59
REMARK   29  A    between atoms: _59  and  _60
REMARK   30  A    between atoms: _59  and  _62
REMARK   31  A    between atoms: _62  and  _63
REMARK   32  A    between atoms: _63  and  _64
REMARK   33  A    between atoms: _64  and  _65
REMARK   34  A    between atoms: _74  and  _76
REMARK   35  A    between atoms: _76  and  _77
REMARK   36  A    between atoms: _80  and  _82
REMARK   37  A    between atoms: _82  and  _83
REMARK   38  A    between atoms: _82  and  _85
REMARK   39  A    between atoms: _85  and  _86
REMARK   40  A    between atoms: _93  and  _94
REMARK   41  A    between atoms: _99  and  _101
REMARK   42  A    between atoms: _101  and  _102
REMARK   43  A    between atoms: _101  and  _104
REMARK   44  A    between atoms: _104  and  _105
REMARK   45  A    between atoms: _105  and  _106
REMARK   46  A    between atoms: _106  and  _107
REMARK   47  A    between atoms: _116  and  _118
REMARK   48  A    between atoms: _118  and  _119
REMARK   49  A    between atoms: _118  and  _121
REMARK   50  A    between atoms: _121  and  _122
REMARK   51  A    between atoms: _127  and  _128
REMARK   52  A    between atoms: _130  and  _132
REMARK   53  A    between atoms: _132  and  _133
REMARK   54  A    between atoms: _135  and  _137
REMARK   55  A    between atoms: _137  and  _138
REMARK   56  A    between atoms: _137  and  _140
REMARK   57  A    between atoms: _140  and  _141
REMARK   58  A    between atoms: _143  and  _145
REMARK   59  A    between atoms: _145  and  _146
REMARK   60  A    between atoms: _145  and  _148
REMARK   61  A    between atoms: _151  and  _153
REMARK   62  A    between atoms: _153  and  _154
REMARK   63  A    between atoms: _157  and  _159
REMARK   64  A    between atoms: _159  and  _160
REMARK   65  A    between atoms: _159  and  _162
REMARK   66  A    between atoms: _162  and  _163
REMARK   67  A    between atoms: _166  and  _168
REMARK   68  A    between atoms: _168  and  _169
REMARK   69  A    between atoms: _168  and  _171
REMARK   70  A    between atoms: _171  and  _172
REMARK   71  A    between atoms: _175  and  _177
REMARK   72  A    between atoms: _177  and  _178
REMARK   73  A    between atoms: _181  and  _183
REMARK   74  A    between atoms: _183  and  _184
REMARK   75  A    between atoms: _187  and  _189
REMARK   76  A    between atoms: _189  and  _190
REMARK   77  A    between atoms: _189  and  _192
REMARK   78  A    between atoms: _192  and  _193
REMARK   79  A    between atoms: _193  and  _194
REMARK   80  A    between atoms: _197  and  _199
REMARK   81  A    between atoms: _199  and  _200
REMARK   82  A    between atoms: _203  and  _205
REMARK   83  A    between atoms: _205  and  _206
REMARK   84  A    between atoms: _205  and  _208
REMARK   85  A    between atoms: _208  and  _209
REMARK   86  A    between atoms: _212  and  _214
REMARK   87  A    between atoms: _214  and  _215
REMARK   88  A    between atoms: _214  and  _217
REMARK   89  A    between atoms: _217  and  _218
REMARK   90  A    between atoms: _223  and  _225
REMARK   91  A    between atoms: _225  and  _226
REMARK   92  A    between atoms: _228  and  _230
REMARK   93  A    between atoms: _230  and  _231
REMARK   94  A    between atoms: _230  and  _233
REMARK   95  A    between atoms: _233  and  _234
REMARK   96  A    between atoms: _234  and  _235
REMARK   97  A    between atoms: _238  and  _240
REMARK   98  A    between atoms: _240  and  _241
REMARK   99  A    between atoms: _240  and  _243
REMARK  100  A    between atoms: _243  and  _244
REMARK  101  A    between atoms: _249  and  _251
REMARK  102  A    between atoms: _251  and  _252
REMARK  103  A    between atoms: _251  and  _254
REMARK  104  A    between atoms: _257  and  _259
REMARK  105  A    between atoms: _259  and  _260
REMARK  106  A    between atoms: _259  and  _262
REMARK  107  A    between atoms: _262  and  _263
REMARK  108  A    between atoms: _263  and  _264
REMARK  109  A    between atoms: _266  and  _268
REMARK  110  A    between atoms: _268  and  _269
REMARK  111  A    between atoms: _272  and  _274
REMARK  112  A    between atoms: _274  and  _275
REMARK  113  A    between atoms: _274  and  _277
REMARK  114  A    between atoms: _277  and  _278
REMARK  115  A    between atoms: _281  and  _283
REMARK  116  A    between atoms: _283  and  _284
REMARK  117  A    between atoms: _283  and  _286
REMARK  118  A    between atoms: _286  and  _287
REMARK  119  A    between atoms: _290  and  _292
REMARK  120  A    between atoms: _292  and  _293
REMARK  121  A    between atoms: _292  and  _295
REMARK  122  A    between atoms: _295  and  _296
REMARK  123  A    between atoms: _302  and  _304
REMARK  124  A    between atoms: _304  and  _305
REMARK  125  A    between atoms: _308  and  _310
REMARK  126  A    between atoms: _310  and  _311
REMARK  127  A    between atoms: _310  and  _313
REMARK  128  A    between atoms: _313  and  _314
REMARK  129  A    between atoms: _317  and  _319
REMARK  130  A    between atoms: _319  and  _320
REMARK  131  A    between atoms: _319  and  _322
REMARK  132  A    between atoms: _322  and  _323
REMARK  133  A    between atoms: _323  and  _324
REMARK  134  A    between atoms: _324  and  _325
REMARK  135  A    between atoms: _334  and  _336
REMARK  136  A    between atoms: _336  and  _337
REMARK  137  A    between atoms: _336  and  _339
REMARK  138  A    between atoms: _339  and  _340
REMARK  139  A    between atoms: _343  and  _345
REMARK  140  A    between atoms: _345  and  _346
REMARK  141  A    between atoms: _345  and  _348
REMARK  142  A    between atoms: _348  and  _349
REMARK  143  A    between atoms: _349  and  _350
REMARK  144  A    between atoms: _350  and  _351
REMARK  145  A    between atoms: _360  and  _362
REMARK  146  A    between atoms: _362  and  _363
REMARK  147  A    between atoms: _362  and  _365
REMARK  148  A    between atoms: _365  and  _366
REMARK  149  A    between atoms: _371  and  _372
REMARK  150  A    between atoms: _374  and  _376
REMARK  151  A    between atoms: _376  and  _377
REMARK  152  A    between atoms: _376  and  _379
REMARK  153  A    between atoms: _382  and  _384
REMARK  154  A    between atoms: _384  and  _385
REMARK  155  A    between atoms: _388  and  _390
REMARK  156  A    between atoms: _390  and  _391
REMARK  157  A    between atoms: _390  and  _393
REMARK  158  A    between atoms: _393  and  _394
REMARK  159  A    between atoms: _396  and  _398
REMARK  160  A    between atoms: _398  and  _399
REMARK  161  A    between atoms: _398  and  _401
REMARK  162  A    between atoms: _401  and  _402
REMARK  163  A    between atoms: _407  and  _409
REMARK  164  A    between atoms: _409  and  _410
REMARK  165  A    between atoms: _413  and  _415
REMARK  166  A    between atoms: _415  and  _416
REMARK  167  A    between atoms: _419  and  _421
REMARK  168  A    between atoms: _421  and  _422
REMARK  169  A    between atoms: _421  and  _424
REMARK  170  A    between atoms: _424  and  _425
REMARK  171  A    between atoms: _430  and  _431
REMARK  172  A    between atoms: _433  and  _435
REMARK  173  A    between atoms: _435  and  _436
REMARK  174  A    between atoms: _435  and  _438
REMARK  175  A    between atoms: _438  and  _439
REMARK  176  A    between atoms: _441  and  _443
REMARK  177  A    between atoms: _443  and  _444
REMARK  178  A    between atoms: _447  and  _449
REMARK  179  A    between atoms: _449  and  _450
REMARK  180  A    between atoms: _449  and  _452
REMARK  181  A    between atoms: _452  and  _453
REMARK  182  A    between atoms: _453  and  _454
REMARK  183  A    between atoms: _454  and  _455
REMARK  184  A    between atoms: _464  and  _466
REMARK  185  A    between atoms: _466  and  _467
REMARK  186  A    between atoms: _466  and  _469
REMARK  187  A    between atoms: _472  and  _474
REMARK  188  A    between atoms: _474  and  _475
REMARK  189  A    between atoms: _474  and  _477
REMARK  190  A    between atoms: _477  and  _478
REMARK  191  A    between atoms: _478  and  _479
REMARK  192  A    between atoms: _482  and  _484
REMARK  193  A    between atoms: _484  and  _485
REMARK  194  A    between atoms: _484  and  _487
REMARK  195  A    between atoms: _487  and  _488
REMARK  196  A    between atoms: _490  and  _492
REMARK  197  A    between atoms: _492  and  _493
REMARK  198  A    between atoms: _492  and  _495
REMARK  199  A    between atoms: _495  and  _496
REMARK  200  A    between atoms: _496  and  _497
REMARK  201  A    between atoms: _497  and  _498
REMARK  202  A    between atoms: _507  and  _509
REMARK  203  A    between atoms: _509  and  _510
REMARK  204  A    between atoms: _513  and  _515
REMARK  205  A    between atoms: _515  and  _516
REMARK  206  A    between atoms: _515  and  _518
REMARK  207  A    between atoms: _518  and  _519
REMARK  208  A    between atoms: _519  and  _520
REMARK  209  A    between atoms: _520  and  _521
REMARK  210  A    between atoms: _530  and  _532
REMARK  211  A    between atoms: _532  and  _533
REMARK  212  A    between atoms: _532  and  _535
REMARK  213  A    between atoms: _535  and  _536
REMARK  214  A    between atoms: _539  and  _541
REMARK  215  A    between atoms: _541  and  _542
REMARK  216  A    between atoms: _544  and  _546
REMARK  217  A    between atoms: _546  and  _547
REMARK  218  A    between atoms: _546  and  _549
REMARK  219  A    between atoms: _549  and  _550
REMARK  220  A    between atoms: _550  and  _551
REMARK  221  A    between atoms: _551  and  _552
REMARK  222  A    between atoms: _561  and  _563
REMARK  223  A    between atoms: _563  and  _564
REMARK  224  A    between atoms: _567  and  _569
REMARK  225  A    between atoms: _569  and  _570
REMARK  226  A    between atoms: _569  and  _572
REMARK  227  A    between atoms: _572  and  _573
REMARK  228  A    between atoms: _573  and  _574
REMARK  229  A    between atoms: _574  and  _575
REMARK  230  A    between atoms: _584  and  _586
REMARK  231  A    between atoms: _586  and  _587
REMARK  232  A    between atoms: _586  and  _589
REMARK  233  A    between atoms: _589  and  _590
REMARK  234  A    between atoms: _593  and  _595
REMARK  235  A    between atoms: _595  and  _596
REMARK  236  A    between atoms: _595  and  _598
REMARK  237  A    between atoms: _598  and  _599
REMARK  238  A    between atoms: _604  and  _606
REMARK  239  A    between atoms: _606  and  _607
REMARK  240  A    between atoms: _606  and  _609
REMARK  241  A    between atoms: _609  and  _610
REMARK  242  A    between atoms: _615  and  _616
REMARK  243  A    between atoms: _618  and  _620
REMARK  244  A    between atoms: _620  and  _621
REMARK  245  A    between atoms: _620  and  _623
REMARK  246  A    between atoms: _623  and  _624
REMARK  247  A    between atoms: _624  and  _625
REMARK  248  A    between atoms: _625  and  _627
REMARK  249  A    between atoms: _627  and  MG_715
REMARK  250  A    between atoms: _628  and  _630
REMARK  251  A    between atoms: _630  and  _631
REMARK  252  A    between atoms: _630  and  _633
REMARK  253  A    between atoms: _633  and  _634
REMARK  254  A    between atoms: _634  and  _635
REMARK  255  A    between atoms: _635  and  _636
REMARK  256  A    between atoms: _645  and  _647
REMARK  257  A    between atoms: _647  and  _648
REMARK  258  A    between atoms: _647  and  _650
REMARK  259  A    between atoms: _650  and  _651
REMARK  260  A    between atoms: _654  and  _656
REMARK  261  A    between atoms: _656  and  _657
REMARK  262  A    between atoms: _656  and  _659
REMARK  263  A    between atoms: _659  and  _660
REMARK  264  A    between atoms: _663  and  _665
REMARK  265  A    between atoms: _665  and  _666
REMARK  266  A    between atoms: _665  and  _668
REMARK  267  A    between atoms: _668  and  _669
REMARK  268  A    between atoms: _669  and  _670
REMARK  269  A    between atoms: _675  and  _677
REMARK  270  A    between atoms: _677  and  _678
REMARK  271  A    between atoms: _677  and  _680
REMARK  272  A    between atoms: _680  and  _681
REMARK  273  A    between atoms: _684  and  _686
REMARK  274  A    between atoms: _686  and  _687
REMARK  275  A    between atoms: _686  and  _689
REMARK  276  A    between atoms: _689  and  _690
REMARK  277  A    between atoms: _695  and  _696
REMARK  278  A    between atoms: _698  and  _700
REMARK  279  A    between atoms: _700  and  _701
REMARK  280  A    between atoms: _700  and  _703
REMARK  281  A    between atoms: _703  and  _704
REMARK  282  A    between atoms: _704  and  _705
REMARK  283  A    between atoms: _705  and  _706
REMARK                            x       y       z     vdW  Elec       q    Type
REMARK                         _______ _______ _______ _____ _____    ______ ____
ROOT
ATOM      1  CA  GLU A   1      30.501  -1.984  12.777  0.00  0.00    +0.134 C 
ENDROOT
BRANCH   1   2
ATOM      2  N   GLU A   1      29.371  -2.896  12.701  0.00  0.00    -0.239 NA
ATOM      3  H   GLU A   1      28.475  -2.665  13.176  0.00  0.00    +0.142 HD
ENDBRANCH   1   2
BRANCH   1   4
ATOM      4  C   GLU A   1      31.612  -2.306  13.776  0.00  0.00    +0.224 C 
ATOM      5  O   GLU A   1      32.783  -2.396  13.391  0.00  0.00    -0.287 OA
ENDBRANCH   1   4
BRANCH   1   6
ATOM      6  CB  GLU A   1      29.981  -0.556  12.961  0.00  0.00    +0.037 C 
BRANCH   6   7
ATOM      7  CG  GLU A   1      28.904  -0.221  11.926  0.00  0.00    +0.116 C 
BRANCH   7   8
ATOM      8  CD  GLU A   1      28.840   1.245  11.584  0.00  0.00    +0.365 C 
ATOM      9  OE2 GLU A   1      27.718   1.807  11.564  0.00  0.00    -0.246 OA
ATOM     10  OE1 GLU A   1      29.912   1.826  11.322  0.00  0.00    -0.246 OA
ENDBRANCH   7   8
ENDBRANCH   6   7
ENDBRANCH   1   6
TORSDOF 5
REMARK  Name = ../refined-set-2016/1mrn/1mrn_pocket.pdb
REMARK  283 active torsions:
REMARK  status: ('A' for Active; 'I' for Inactive)
REMARK    1  A    between atoms: _1  and  _3
REMARK    2  A    between atoms: _3  and  _4
REMARK    3  A    between atoms: _3  and  _6
REMARK    4  A    between atoms: _6  and  _7
REMARK    5  A    between atoms: _7  and  _8
REMARK    6  A    between atoms: _11  and  _13
REMARK    7  A    between atoms: _13  and  _14
REMARK    8  A    between atoms: _16  and  _18
REMARK    9  A    between atoms: _18  and  _19
REMARK   10  A    between atoms: _18  and  _21
REMARK   11  A    between atoms: _24  and  _26
REMARK   12  A    between atoms: _26  and  _27
REMARK   13  A    between atoms: _26  and  _29
REMARK   14  A    between atoms: _29  and  _30
REMARK   15  A    between atoms: _30  and  _31
REMARK   16  A    between atoms: _31  and  MG_715
REMARK   17  A    between atoms: _33  and  _35
REMARK   18  A    between atoms: _35  and  _36
REMARK   19  A    between atoms: _38  and  _40
REMARK   20  A    between atoms: _40  and  _41
REMARK   21  A    between atoms: _44  and  _46
REMARK   22  A    between atoms: _46  and  _47
REMARK   23  A    between atoms: _46  and  _49
REMARK   24  A    between atoms: _49  and  _50
REMARK   25  A    between atoms: _50  and  _51
REMARK   26  A    between atoms: _51  and  _52
REMARK   27  A    between atoms: _52  and  _53
REMARK   28  A    between atoms: _57  and  _59
REMARK   29  A    between atoms: _59  and  _60
REMARK   30  A    between atoms: _59  and  _62
REMARK   31  A    between atoms: _62  and  _63
REMARK   32  A    between atoms: _63  and  _64
REMARK   33  A    between atoms: _64  and  _65
REMARK   34  A    between atoms: _74  and  _76
REMARK   35  A    between atoms: _76  and  _77
REMARK   36  A    between atoms: _80  and  _82
REMARK   37  A    between atoms: _82  and  _83
REMARK   38  A    between atoms: _82  and  _85
REMARK   39  A    between atoms: _85  and  _86
REMARK   40  A    between atoms: _93  and  _94
REMARK   41  A    between atoms: _99  and  _101
REMARK   42  A    between atoms: _101  and  _102
REMARK   43  A    between atoms: _101  and  _104
REMARK   44  A    between atoms: _104  and  _105
REMARK   45  A    between atoms: _105  and  _106
REMARK   46  A    between atoms: _106  and  _107
REMARK   47  A    between atoms: _116  and  _118
REMARK   48  A    between atoms: _118  and  _119
REMARK   49  A    between atoms: _118  and  _121
REMARK   50  A    between atoms: _121  and  _122
REMARK   51  A    between atoms: _127  and  _128
REMARK   52  A    between atoms: _130  and  _132
REMARK   53  A    between atoms: _132  and  _133
REMARK   54  A    between atoms: _135  and  _137
REMARK   55  A    between atoms: _137  and  _138
REMARK   56  A    between atoms: _137  and  _140
REMARK   57  A    between atoms: _140  and  _141
REMARK   58  A    between atoms: _143  and  _145
REMARK   59  A    between atoms: _145  and  _146
REMARK   60  A    between atoms: _145  and  _148
REMARK   61  A    between atoms: _151  and  _153
REMARK   62  A    between atoms: _153  and  _154
REMARK   63  A    between atoms: _157  and  _159
REMARK   64  A    between atoms: _159  and  _160
REMARK   65  A    between atoms: _159  and  _162
REMARK   66  A    between atoms: _162  and  _163
REMARK   67  A    between atoms: _166  and  _168
REMARK   68  A    between atoms: _168  and  _169
REMARK   69  A    between atoms: _168  and  _171
REMARK   70  A    between atoms: _171  and  _172
REMARK   71  A    between atoms: _175  and  _177
REMARK   72  A    between atoms: _177  and  _178
REMARK   73  A    between atoms: _181  and  _183
REMARK   74  A    between atoms: _183  and  _184
REMARK   75  A    between atoms: _187  and  _189
REMARK   76  A    between atoms: _189  and  _190
REMARK   77  A    between atoms: _189  and  _192
REMARK   78  A    between atoms: _192  and  _193
REMARK   79  A    between atoms: _193  and  _194
REMARK   80  A    between atoms: _197  and  _199
REMARK   81  A    between atoms: _199  and  _200
REMARK   82  A    between atoms: _203  and  _205
REMARK   83  A    between atoms: _205  and  _206
REMARK   84  A    between atoms: _205  and  _208
REMARK   85  A    between atoms: _208  and  _209
REMARK   86  A    between atoms: _212  and  _214
REMARK   87  A    between atoms: _214  and  _215
REMARK   88  A    between atoms: _214  and  _217
REMARK   89  A    between atoms: _217  and  _218
REMARK   90  A    between atoms: _223  and  _225
REMARK   91  A    between atoms: _225  and  _226
REMARK   92  A    between atoms: _228  and  _230
REMARK   93  A    between atoms: _230  and  _231
REMARK   94  A    between atoms: _230  and  _233
REMARK   95  A    between atoms: _233  and  _234
REMARK   96  A    between atoms: _234  and  _235
REMARK   97  A    between atoms: _238  and  _240
REMARK   98  A    between atoms: _240  and  _241
REMARK   99  A    between atoms: _240  and  _243
REMARK  100  A    between atoms: _243  and  _244
REMARK  101  A    between atoms: _249  and  _251
REMARK  102  A    between atoms: _251  and  _252
REMARK  103  A    between atoms: _251  and  _254
REMARK  104  A    between atoms: _257  and  _259
REMARK  105  A    between atoms: _259  and  _260
REMARK  106  A    between atoms: _259  and  _262
REMARK  107  A    between atoms: _262  and  _263
REMARK  108  A    between atoms: _263  and  _264
REMARK  109  A    between atoms: _266  and  _268
REMARK  110  A    between atoms: _268  and  _269
REMARK  111  A    between atoms: _272  and  _274
REMARK  112  A    between atoms: _274  and  _275
REMARK  113  A    between atoms: _274  and  _277
REMARK  114  A    between atoms: _277  and  _278
REMARK  115  A    between atoms: _281  and  _283
REMARK  116  A    between atoms: _283  and  _284
REMARK  117  A    between atoms: _283  and  _286
REMARK  118  A    between atoms: _286  and  _287
REMARK  119  A    between atoms: _290  and  _292
REMARK  120  A    between atoms: _292  and  _293
REMARK  121  A    between atoms: _292  and  _295
REMARK  122  A    between atoms: _295  and  _296
REMARK  123  A    between atoms: _302  and  _304
REMARK  124  A    between atoms: _304  and  _305
REMARK  125  A    between atoms: _308  and  _310
REMARK  126  A    between atoms: _310  and  _311
REMARK  127  A    between atoms: _310  and  _313
REMARK  128  A    between atoms: _313  and  _314
REMARK  129  A    between atoms: _317  and  _319
REMARK  130  A    between atoms: _319  and  _320
REMARK  131  A    between atoms: _319  and  _322
REMARK  132  A    between atoms: _322  and  _323
REMARK  133  A    between atoms: _323  and  _324
REMARK  134  A    between atoms: _324  and  _325
REMARK  135  A    between atoms: _334  and  _336
REMARK  136  A    between atoms: _336  and  _337
REMARK  137  A    between atoms: _336  and  _339
REMARK  138  A    between atoms: _339  and  _340
REMARK  139  A    between atoms: _343  and  _345
REMARK  140  A    between atoms: _345  and  _346
REMARK  141  A    between atoms: _345  and  _348
REMARK  142  A    between atoms: _348  and  _349
REMARK  143  A    between atoms: _349  and  _350
REMARK  144  A    between atoms: _350  and  _351
REMARK  145  A    between atoms: _360  and  _362
REMARK  146  A    between atoms: _362  and  _363
REMARK  147  A    between atoms: _362  and  _365
REMARK  148  A    between atoms: _365  and  _366
REMARK  149  A    between atoms: _371  and  _372
REMARK  150  A    between atoms: _374  and  _376
REMARK  151  A    between atoms: _376  and  _377
REMARK  152  A    between atoms: _376  and  _379
REMARK  153  A    between atoms: _382  and  _384
REMARK  154  A    between atoms: _384  and  _385
REMARK  155  A    between atoms: _388  and  _390
REMARK  156  A    between atoms: _390  and  _391
REMARK  157  A    between atoms: _390  and  _393
REMARK  158  A    between atoms: _393  and  _394
REMARK  159  A    between atoms: _396  and  _398
REMARK  160  A    between atoms: _398  and  _399
REMARK  161  A    between atoms: _398  and  _401
REMARK  162  A    between atoms: _401  and  _402
REMARK  163  A    between atoms: _407  and  _409
REMARK  164  A    between atoms: _409  and  _410
REMARK  165  A    between atoms: _413  and  _415
REMARK  166  A    between atoms: _415  and  _416
REMARK  167  A    between atoms: _419  and  _421
REMARK  168  A    between atoms: _421  and  _422
REMARK  169  A    between atoms: _421  and  _424
REMARK  170  A    between atoms: _424  and  _425
REMARK  171  A    between atoms: _430  and  _431
REMARK  172  A    between atoms: _433  and  _435
REMARK  173  A    between atoms: _435  and  _436
REMARK  174  A    between atoms: _435  and  _438
REMARK  175  A    between atoms: _438  and  _439
REMARK  176  A    between atoms: _441  and  _443
REMARK  177  A    between atoms: _443  and  _444
REMARK  178  A    between atoms: _447  and  _449
REMARK  179  A    between atoms: _449  and  _450
REMARK  180  A    between atoms: _449  and  _452
REMARK  181  A    between atoms: _452  and  _453
REMARK  182  A    between atoms: _453  and  _454
REMARK  183  A    between atoms: _454  and  _455
REMARK  184  A    between atoms: _464  and  _466
REMARK  185  A    between atoms: _466  and  _467
REMARK  186  A    between atoms: _466  and  _469
REMARK  187  A    between atoms: _472  and  _474
REMARK  188  A    between atoms: _474  and  _475
REMARK  189  A    between atoms: _474  and  _477
REMARK  190  A    between atoms: _477  and  _478
REMARK  191  A    between atoms: _478  and  _479
REMARK  192  A    between atoms: _482  and  _484
REMARK  193  A    between atoms: _484  and  _485
REMARK  194  A    between atoms: _484  and  _487
REMARK  195  A    between atoms: _487  and  _488
REMARK  196  A    between atoms: _490  and  _492
REMARK  197  A    between atoms: _492  and  _493
REMARK  198  A    between atoms: _492  and  _495
REMARK  199  A    between atoms: _495  and  _496
REMARK  200  A    between atoms: _496  and  _497
REMARK  201  A    between atoms: _497  and  _498
REMARK  202  A    between atoms: _507  and  _509
REMARK  203  A    between atoms: _509  and  _510
REMARK  204  A    between atoms: _513  and  _515
REMARK  205  A    between atoms: _515  and  _516
REMARK  206  A    between atoms: _515  and  _518
REMARK  207  A    between atoms: _518  and  _519
REMARK  208  A    between atoms: _519  and  _520
REMARK  209  A    between atoms: _520  and  _521
REMARK  210  A    between atoms: _530  and  _532
REMARK  211  A    between atoms: _532  and  _533
REMARK  212  A    between atoms: _532  and  _535
REMARK  213  A    between atoms: _535  and  _536
REMARK  214  A    between atoms: _539  and  _541
REMARK  215  A    between atoms: _541  and  _542
REMARK  216  A    between atoms: _544  and  _546
REMARK  217  A    between atoms: _546  and  _547
REMARK  218  A    between atoms: _546  and  _549
REMARK  219  A    between atoms: _549  and  _550
REMARK  220  A    between atoms: _550  and  _551
REMARK  221  A    between atoms: _551  and  _552
REMARK  222  A    between atoms: _561  and  _563
REMARK  223  A    between atoms: _563  and  _564
REMARK  224  A    between atoms: _567  and  _569
REMARK  225  A    between atoms: _569  and  _570
REMARK  226  A    between atoms: _569  and  _572
REMARK  227  A    between atoms: _572  and  _573
REMARK  228  A    between atoms: _573  and  _574
REMARK  229  A    between atoms: _574  and  _575
REMARK  230  A    between atoms: _584  and  _586
REMARK  231  A    between atoms: _586  and  _587
REMARK  232  A    between atoms: _586  and  _589
REMARK  233  A    between atoms: _589  and  _590
REMARK  234  A    between atoms: _593  and  _595
REMARK  235  A    between atoms: _595  and  _596
REMARK  236  A    between atoms: _595  and  _598
REMARK  237  A    between atoms: _598  and  _599
REMARK  238  A    between atoms: _604  and  _606
REMARK  239  A    between atoms: _606  and  _607
REMARK  240  A    between atoms: _606  and  _609
REMARK  241  A    between atoms: _609  and  _610
REMARK  242  A    between atoms: _615  and  _616
REMARK  243  A    between atoms: _618  and  _620
REMARK  244  A    between atoms: _620  and  _621
REMARK  245  A    between atoms: _620  and  _623
REMARK  246  A    between atoms: _623  and  _624
REMARK  247  A    between atoms: _624  and  _625
REMARK  248  A    between atoms: _625  and  _627
REMARK  249  A    between atoms: _627  and  MG_715
REMARK  250  A    between atoms: _628  and  _630
REMARK  251  A    between atoms: _630  and  _631
REMARK  252  A    between atoms: _630  and  _633
REMARK  253  A    between atoms: _633  and  _634
REMARK  254  A    between atoms: _634  and  _635
REMARK  255  A    between atoms: _635  and  _636
REMARK  256  A    between atoms: _645  and  _647
REMARK  257  A    between atoms: _647  and  _648
REMARK  258  A    between atoms: _647  and  _650
REMARK  259  A    between atoms: _650  and  _651
REMARK  260  A    between atoms: _654  and  _656
REMARK  261  A    between atoms: _656  and  _657
REMARK  262  A    between atoms: _656  and  _659
REMARK  263  A    between atoms: _659  and  _660
REMARK  264  A    between atoms: _663  and  _665
REMARK  265  A    between atoms: _665  and  _666
REMARK  266  A    between atoms: _665  and  _668
REMARK  267  A    between atoms: _668  and  _669
REMARK  268  A    between atoms: _669  and  _670
REMARK  269  A    between atoms: _675  and  _677
REMARK  270  A    between atoms: _677  and  _678
REMARK  271  A    between atoms: _677  and  _680
REMARK  272  A    between atoms: _680  and  _681
REMARK  273  A    between atoms: _684  and  _686
REMARK  274  A    between atoms: _686  and  _687
REMARK  275  A    between atoms: _686  and  _689
REMARK  276  A    between atoms: _689  and  _690
REMARK  277  A    between atoms: _695  and  _696
REMARK  278  A    between atoms: _698  and  _700
REMARK  279  A    between atoms: _700  and  _701
REMARK  280  A    between atoms: _700  and  _703
REMARK  281  A    between atoms: _703  and  _704
REMARK  282  A    between atoms: _704  and  _705
REMARK  283  A    between atoms: _705  and  _706
REMARK                            x       y       z     vdW  Elec       q    Type
REMARK                         _______ _______ _______ _____ _____    ______ ____
ROOT
ATOM      1  CA  SER A   1      19.631  23.402   9.619  0.00  0.00    +0.163 C 
ENDROOT
BRANCH   1   2
ATOM      2  N   SER A   1      19.626  24.108  10.900  0.00  0.00    -0.237 NA
ATOM      3  H   SER A   1      19.082  23.717  11.695  0.00  0.00    +0.142 HD
ENDBRANCH   1   2
BRANCH   1   4
ATOM      4  C   SER A   1      18.968  24.243   8.527  0.00  0.00    +0.227 C 
ATOM      5  O   SER A   1      19.469  24.312   7.396  0.00  0.00    -0.287 OA
ENDBRANCH   1   4
BRANCH   1   6
ATOM      6  CB  SER A   1      18.900  22.060   9.731  0.00  0.00    +0.162 C 
BRANCH   6   7
ATOM      7  OG  SER A   1      19.749  21.062  10.263  0.00  0.00    -0.380 OA
ATOM      8  H   SER A   1      19.253  20.207  10.325  0.00  0.00    +0.211 HD
ENDBRANCH   6   7
ENDBRANCH   1   6
TORSDOF 4
REMARK  Name = ../refined-set-2016/1mrn/1mrn_pocket.pdb
REMARK  283 active torsions:
REMARK  status: ('A' for Active; 'I' for Inactive)
REMARK    1  A    between atoms: _1  and  _3
REMARK    2  A    between atoms: _3  and  _4
REMARK    3  A    between atoms: _3  and  _6
REMARK    4  A    between atoms: _6  and  _7
REMARK    5  A    between atoms: _7  and  _8
REMARK    6  A    between atoms: _11  and  _13
REMARK    7  A    between atoms: _13  and  _14
REMARK    8  A    between atoms: _16  and  _18
REMARK    9  A    between atoms: _18  and  _19
REMARK   10  A    between atoms: _18  and  _21
REMARK   11  A    between atoms: _24  and  _26
REMARK   12  A    between atoms: _26  and  _27
REMARK   13  A    between atoms: _26  and  _29
REMARK   14  A    between atoms: _29  and  _30
REMARK   15  A    between atoms: _30  and  _31
REMARK   16  A    between atoms: _31  and  MG_715
REMARK   17  A    between atoms: _33  and  _35
REMARK   18  A    between atoms: _35  and  _36
REMARK   19  A    between atoms: _38  and  _40
REMARK   20  A    between atoms: _40  and  _41
REMARK   21  A    between atoms: _44  and  _46
REMARK   22  A    between atoms: _46  and  _47
REMARK   23  A    between atoms: _46  and  _49
REMARK   24  A    between atoms: _49  and  _50
REMARK   25  A    between atoms: _50  and  _51
REMARK   26  A    between atoms: _51  and  _52
REMARK   27  A    between atoms: _52  and  _53
REMARK   28  A    between atoms: _57  and  _59
REMARK   29  A    between atoms: _59  and  _60
REMARK   30  A    between atoms: _59  and  _62
REMARK   31  A    between atoms: _62  and  _63
REMARK   32  A    between atoms: _63  and  _64
REMARK   33  A    between atoms: _64  and  _65
REMARK   34  A    between atoms: _74  and  _76
REMARK   35  A    between atoms: _76  and  _77
REMARK   36  A    between atoms: _80  and  _82
REMARK   37  A    between atoms: _82  and  _83
REMARK   38  A    between atoms: _82  and  _85
REMARK   39  A    between atoms: _85  and  _86
REMARK   40  A    between atoms: _93  and  _94
REMARK   41  A    between atoms: _99  and  _101
REMARK   42  A    between atoms: _101  and  _102
REMARK   43  A    between atoms: _101  and  _104
REMARK   44  A    between atoms: _104  and  _105
REMARK   45  A    between atoms: _105  and  _106
REMARK   46  A    between atoms: _106  and  _107
REMARK   47  A    between atoms: _116  and  _118
REMARK   48  A    between atoms: _118  and  _119
REMARK   49  A    between atoms: _118  and  _121
REMARK   50  A    between atoms: _121  and  _122
REMARK   51  A    between atoms: _127  and  _128
REMARK   52  A    between atoms: _130  and  _132
REMARK   53  A    between atoms: _132  and  _133
REMARK   54  A    between atoms: _135  and  _137
REMARK   55  A    between atoms: _137  and  _138
REMARK   56  A    between atoms: _137  and  _140
REMARK   57  A    between atoms: _140  and  _141
REMARK   58  A    between atoms: _143  and  _145
REMARK   59  A    between atoms: _145  and  _146
REMARK   60  A    between atoms: _145  and  _148
REMARK   61  A    between atoms: _151  and  _153
REMARK   62  A    between atoms: _153  and  _154
REMARK   63  A    between atoms: _157  and  _159
REMARK   64  A    between atoms: _159  and  _160
REMARK   65  A    between atoms: _159  and  _162
REMARK   66  A    between atoms: _162  and  _163
REMARK   67  A    between atoms: _166  and  _168
REMARK   68  A    between atoms: _168  and  _169
REMARK   69  A    between atoms: _168  and  _171
REMARK   70  A    between atoms: _171  and  _172
REMARK   71  A    between atoms: _175  and  _177
REMARK   72  A    between atoms: _177  and  _178
REMARK   73  A    between atoms: _181  and  _183
REMARK   74  A    between atoms: _183  and  _184
REMARK   75  A    between atoms: _187  and  _189
REMARK   76  A    between atoms: _189  and  _190
REMARK   77  A    between atoms: _189  and  _192
REMARK   78  A    between atoms: _192  and  _193
REMARK   79  A    between atoms: _193  and  _194
REMARK   80  A    between atoms: _197  and  _199
REMARK   81  A    between atoms: _199  and  _200
REMARK   82  A    between atoms: _203  and  _205
REMARK   83  A    between atoms: _205  and  _206
REMARK   84  A    between atoms: _205  and  _208
REMARK   85  A    between atoms: _208  and  _209
REMARK   86  A    between atoms: _212  and  _214
REMARK   87  A    between atoms: _214  and  _215
REMARK   88  A    between atoms: _214  and  _217
REMARK   89  A    between atoms: _217  and  _218
REMARK   90  A    between atoms: _223  and  _225
REMARK   91  A    between atoms: _225  and  _226
REMARK   92  A    between atoms: _228  and  _230
REMARK   93  A    between atoms: _230  and  _231
REMARK   94  A    between atoms: _230  and  _233
REMARK   95  A    between atoms: _233  and  _234
REMARK   96  A    between atoms: _234  and  _235
REMARK   97  A    between atoms: _238  and  _240
REMARK   98  A    between atoms: _240  and  _241
REMARK   99  A    between atoms: _240  and  _243
REMARK  100  A    between atoms: _243  and  _244
REMARK  101  A    between atoms: _249  and  _251
REMARK  102  A    between atoms: _251  and  _252
REMARK  103  A    between atoms: _251  and  _254
REMARK  104  A    between atoms: _257  and  _259
REMARK  105  A    between atoms: _259  and  _260
REMARK  106  A    between atoms: _259  and  _262
REMARK  107  A    between atoms: _262  and  _263
REMARK  108  A    between atoms: _263  and  _264
REMARK  109  A    between atoms: _266  and  _268
REMARK  110  A    between atoms: _268  and  _269
REMARK  111  A    between atoms: _272  and  _274
REMARK  112  A    between atoms: _274  and  _275
REMARK  113  A    between atoms: _274  and  _277
REMARK  114  A    between atoms: _277  and  _278
REMARK  115  A    between atoms: _281  and  _283
REMARK  116  A    between atoms: _283  and  _284
REMARK  117  A    between atoms: _283  and  _286
REMARK  118  A    between atoms: _286  and  _287
REMARK  119  A    between atoms: _290  and  _292
REMARK  120  A    between atoms: _292  and  _293
REMARK  121  A    between atoms: _292  and  _295
REMARK  122  A    between atoms: _295  and  _296
REMARK  123  A    between atoms: _302  and  _304
REMARK  124  A    between atoms: _304  and  _305
REMARK  125  A    between atoms: _308  and  _310
REMARK  126  A    between atoms: _310  and  _311
REMARK  127  A    between atoms: _310  and  _313
REMARK  128  A    between atoms: _313  and  _314
REMARK  129  A    between atoms: _317  and  _319
REMARK  130  A    between atoms: _319  and  _320
REMARK  131  A    between atoms: _319  and  _322
REMARK  132  A    between atoms: _322  and  _323
REMARK  133  A    between atoms: _323  and  _324
REMARK  134  A    between atoms: _324  and  _325
REMARK  135  A    between atoms: _334  and  _336
REMARK  136  A    between atoms: _336  and  _337
REMARK  137  A    between atoms: _336  and  _339
REMARK  138  A    between atoms: _339  and  _340
REMARK  139  A    between atoms: _343  and  _345
REMARK  140  A    between atoms: _345  and  _346
REMARK  141  A    between atoms: _345  and  _348
REMARK  142  A    between atoms: _348  and  _349
REMARK  143  A    between atoms: _349  and  _350
REMARK  144  A    between atoms: _350  and  _351
REMARK  145  A    between atoms: _360  and  _362
REMARK  146  A    between atoms: _362  and  _363
REMARK  147  A    between atoms: _362  and  _365
REMARK  148  A    between atoms: _365  and  _366
REMARK  149  A    between atoms: _371  and  _372
REMARK  150  A    between atoms: _374  and  _376
REMARK  151  A    between atoms: _376  and  _377
REMARK  152  A    between atoms: _376  and  _379
REMARK  153  A    between atoms: _382  and  _384
REMARK  154  A    between atoms: _384  and  _385
REMARK  155  A    between atoms: _388  and  _390
REMARK  156  A    between atoms: _390  and  _391
REMARK  157  A    between atoms: _390  and  _393
REMARK  158  A    between atoms: _393  and  _394
REMARK  159  A    between atoms: _396  and  _398
REMARK  160  A    between atoms: _398  and  _399
REMARK  161  A    between atoms: _398  and  _401
REMARK  162  A    between atoms: _401  and  _402
REMARK  163  A    between atoms: _407  and  _409
REMARK  164  A    between atoms: _409  and  _410
REMARK  165  A    between atoms: _413  and  _415
REMARK  166  A    between atoms: _415  and  _416
REMARK  167  A    between atoms: _419  and  _421
REMARK  168  A    between atoms: _421  and  _422
REMARK  169  A    between atoms: _421  and  _424
REMARK  170  A    between atoms: _424  and  _425
REMARK  171  A    between atoms: _430  and  _431
REMARK  172  A    between atoms: _433  and  _435
REMARK  173  A    between atoms: _435  and  _436
REMARK  174  A    between atoms: _435  and  _438
REMARK  175  A    between atoms: _438  and  _439
REMARK  176  A    between atoms: _441  and  _443
REMARK  177  A    between atoms: _443  and  _444
REMARK  178  A    between atoms: _447  and  _449
REMARK  179  A    between atoms: _449  and  _450
REMARK  180  A    between atoms: _449  and  _452
REMARK  181  A    between atoms: _452  and  _453
REMARK  182  A    between atoms: _453  and  _454
REMARK  183  A    between atoms: _454  and  _455
REMARK  184  A    between atoms: _464  and  _466
REMARK  185  A    between atoms: _466  and  _467
REMARK  186  A    between atoms: _466  and  _469
REMARK  187  A    between atoms: _472  and  _474
REMARK  188  A    between atoms: _474  and  _475
REMARK  189  A    between atoms: _474  and  _477
REMARK  190  A    between atoms: _477  and  _478
REMARK  191  A    between atoms: _478  and  _479
REMARK  192  A    between atoms: _482  and  _484
REMARK  193  A    between atoms: _484  and  _485
REMARK  194  A    between atoms: _484  and  _487
REMARK  195  A    between atoms: _487  and  _488
REMARK  196  A    between atoms: _490  and  _492
REMARK  197  A    between atoms: _492  and  _493
REMARK  198  A    between atoms: _492  and  _495
REMARK  199  A    between atoms: _495  and  _496
REMARK  200  A    between atoms: _496  and  _497
REMARK  201  A    between atoms: _497  and  _498
REMARK  202  A    between atoms: _507  and  _509
REMARK  203  A    between atoms: _509  and  _510
REMARK  204  A    between atoms: _513  and  _515
REMARK  205  A    between atoms: _515  and  _516
REMARK  206  A    between atoms: _515  and  _518
REMARK  207  A    between atoms: _518  and  _519
REMARK  208  A    between atoms: _519  and  _520
REMARK  209  A    between atoms: _520  and  _521
REMARK  210  A    between atoms: _530  and  _532
REMARK  211  A    between atoms: _532  and  _533
REMARK  212  A    between atoms: _532  and  _535
REMARK  213  A    between atoms: _535  and  _536
REMARK  214  A    between atoms: _539  and  _541
REMARK  215  A    between atoms: _541  and  _542
REMARK  216  A    between atoms: _544  and  _546
REMARK  217  A    between atoms: _546  and  _547
REMARK  218  A    between atoms: _546  and  _549
REMARK  219  A    between atoms: _549  and  _550
REMARK  220  A    between atoms: _550  and  _551
REMARK  221  A    between atoms: _551  and  _552
REMARK  222  A    between atoms: _561  and  _563
REMARK  223  A    between atoms: _563  and  _564
REMARK  224  A    between atoms: _567  and  _569
REMARK  225  A    between atoms: _569  and  _570
REMARK  226  A    between atoms: _569  and  _572
REMARK  227  A    between atoms: _572  and  _573
REMARK  228  A    between atoms: _573  and  _574
REMARK  229  A    between atoms: _574  and  _575
REMARK  230  A    between atoms: _584  and  _586
REMARK  231  A    between atoms: _586  and  _587
REMARK  232  A    between atoms: _586  and  _589
REMARK  233  A    between atoms: _589  and  _590
REMARK  234  A    between atoms: _593  and  _595
REMARK  235  A    between atoms: _595  and  _596
REMARK  236  A    between atoms: _595  and  _598
REMARK  237  A    between atoms: _598  and  _599
REMARK  238  A    between atoms: _604  and  _606
REMARK  239  A    between atoms: _606  and  _607
REMARK  240  A    between atoms: _606  and  _609
REMARK  241  A    between atoms: _609  and  _610
REMARK  242  A    between atoms: _615  and  _616
REMARK  243  A    between atoms: _618  and  _620
REMARK  244  A    between atoms: _620  and  _621
REMARK  245  A    between atoms: _620  and  _623
REMARK  246  A    between atoms: _623  and  _624
REMARK  247  A    between atoms: _624  and  _625
REMARK  248  A    between atoms: _625  and  _627
REMARK  249  A    between atoms: _627  and  MG_715
REMARK  250  A    between atoms: _628  and  _630
REMARK  251  A    between atoms: _630  and  _631
REMARK  252  A    between atoms: _630  and  _633
REMARK  253  A    between atoms: _633  and  _634
REMARK  254  A    between atoms: _634  and  _635
REMARK  255  A    between atoms: _635  and  _636
REMARK  256  A    between atoms: _645  and  _647
REMARK  257  A    between atoms: _647  and  _648
REMARK  258  A    between atoms: _647  and  _650
REMARK  259  A    between atoms: _650  and  _651
REMARK  260  A    between atoms: _654  and  _656
REMARK  261  A    between atoms: _656  and  _657
REMARK  262  A    between atoms: _656  and  _659
REMARK  263  A    between atoms: _659  and  _660
REMARK  264  A    between atoms: _663  and  _665
REMARK  265  A    between atoms: _665  and  _666
REMARK  266  A    between atoms: _665  and  _668
REMARK  267  A    between atoms: _668  and  _669
REMARK  268  A    between atoms: _669  and  _670
REMARK  269  A    between atoms: _675  and  _677
REMARK  270  A    between atoms: _677  and  _678
REMARK  271  A    between atoms: _677  and  _680
REMARK  272  A    between atoms: _680  and  _681
REMARK  273  A    between atoms: _684  and  _686
REMARK  274  A    between atoms: _686  and  _687
REMARK  275  A    between atoms: _686  and  _689
REMARK  276  A    between atoms: _689  and  _690
REMARK  277  A    between atoms: _695  and  _696
REMARK  278  A    between atoms: _698  and  _700
REMARK  279  A    between atoms: _700  and  _701
REMARK  280  A    between atoms: _700  and  _703
REMARK  281  A    between atoms: _703  and  _704
REMARK  282  A    between atoms: _704  and  _705
REMARK  283  A    between atoms: _705  and  _706
REMARK                            x       y       z     vdW  Elec       q    Type
REMARK                         _______ _______ _______ _____ _____    ______ ____
ROOT
ATOM      1  CB  ARG A   1      22.773  25.562   7.660  0.00  0.00    +0.030 C 
ENDROOT
BRANCH   1   2
ATOM      2  CA  ARG A   1      22.288  26.894   7.070  0.00  0.00    +0.145 C 
BRANCH   2   3
ATOM      3  C   ARG A   1      21.980  26.761   5.567  0.00  0.00    +0.238 C 
ATOM      4  N   ALA A   2      20.888  26.073   5.239  0.00  0.00    -0.298 N 
ATOM      5  H   ALA A   2      20.307  25.657   5.994  0.00  0.00    +0.150 HD
ATOM      6  O   ARG A   1      22.708  27.283   4.725  0.00  0.00    -0.274 OA
BRANCH   4   7
ATOM      7  CA  ALA A   2      20.485  25.887   3.849  0.00  0.00    +0.137 C 
ATOM      8  CB  ALA A   2      19.291  24.958   3.773  0.00  0.00    +0.030 C 
BRANCH   7   9
ATOM      9  C   ALA A   2      20.154  27.224   3.199  0.00  0.00    +0.227 C 
ATOM     10  O   ALA A   2      20.428  27.427   2.017  0.00  0.00    -0.286 OA
ENDBRANCH   7   9
ENDBRANCH   4   7
ENDBRANCH   2   3
BRANCH   2  11
ATOM     11  N   ARG A   1      21.105  27.333   7.798  0.00  0.00    -0.238 NA
ATOM     12  H   ARG A   1      20.734  26.731   8.560  0.00  0.00    +0.142 HD
ENDBRANCH   2  11
ENDBRANCH   1   2
BRANCH   1  13
ATOM     13  CG  ARG A   1      24.200  25.208   7.351  0.00  0.00    +0.045 C 
BRANCH  13  14
ATOM     14  CD  ARG A   1      24.934  24.830   8.634  0.00  0.00    +0.174 C 
BRANCH  14  15
ATOM     15  NE  ARG A   1      24.501  23.536   9.150  0.00  0.00    -0.265 N 
ATOM     16  CZ  ARG A   1      24.700  23.100  10.392  0.00  0.00    +0.342 C 
ATOM     17  NH2 ARG A   1      25.337  23.845  11.289  0.00  0.00    -0.292 N 
ATOM     18 HH21 ARG A   1      25.482  23.486  12.254  0.00  0.00    +0.255 HD
ATOM     19 HH22 ARG A   1      25.690  24.787  11.026  0.00  0.00    +0.255 HD
ATOM     20  NH1 ARG A   1      24.240  21.907  10.736  0.00  0.00    -0.292 N 
ATOM     21 HH11 ARG A   1      24.387  21.552  11.702  0.00  0.00    +0.255 HD
ATOM     22 HH12 ARG A   1      23.732  21.325  10.040  0.00  0.00    +0.255 HD
ATOM     23  HE  ARG A   1      23.997  22.904   8.496  0.00  0.00    +0.259 HD
ENDBRANCH  14  15
ENDBRANCH  13  14
ENDBRANCH   1  13
TORSDOF 8
REMARK  Name = ../refined-set-2016/1mrn/1mrn_pocket.pdb
REMARK  283 active torsions:
REMARK  status: ('A' for Active; 'I' for Inactive)
REMARK    1  A    between atoms: _1  and  _3
REMARK    2  A    between atoms: _3  and  _4
REMARK    3  A    between atoms: _3  and  _6
REMARK    4  A    between atoms: _6  and  _7
REMARK    5  A    between atoms: _7  and  _8
REMARK    6  A    between atoms: _11  and  _13
REMARK    7  A    between atoms: _13  and  _14
REMARK    8  A    between atoms: _16  and  _18
REMARK    9  A    between atoms: _18  and  _19
REMARK   10  A    between atoms: _18  and  _21
REMARK   11  A    between atoms: _24  and  _26
REMARK   12  A    between atoms: _26  and  _27
REMARK   13  A    between atoms: _26  and  _29
REMARK   14  A    between atoms: _29  and  _30
REMARK   15  A    between atoms: _30  and  _31
REMARK   16  A    between atoms: _31  and  MG_715
REMARK   17  A    between atoms: _33  and  _35
REMARK   18  A    between atoms: _35  and  _36
REMARK   19  A    between atoms: _38  and  _40
REMARK   20  A    between atoms: _40  and  _41
REMARK   21  A    between atoms: _44  and  _46
REMARK   22  A    between atoms: _46  and  _47
REMARK   23  A    between atoms: _46  and  _49
REMARK   24  A    between atoms: _49  and  _50
REMARK   25  A    between atoms: _50  and  _51
REMARK   26  A    between atoms: _51  and  _52
REMARK   27  A    between atoms: _52  and  _53
REMARK   28  A    between atoms: _57  and  _59
REMARK   29  A    between atoms: _59  and  _60
REMARK   30  A    between atoms: _59  and  _62
REMARK   31  A    between atoms: _62  and  _63
REMARK   32  A    between atoms: _63  and  _64
REMARK   33  A    between atoms: _64  and  _65
REMARK   34  A    between atoms: _74  and  _76
REMARK   35  A    between atoms: _76  and  _77
REMARK   36  A    between atoms: _80  and  _82
REMARK   37  A    between atoms: _82  and  _83
REMARK   38  A    between atoms: _82  and  _85
REMARK   39  A    between atoms: _85  and  _86
REMARK   40  A    between atoms: _93  and  _94
REMARK   41  A    between atoms: _99  and  _101
REMARK   42  A    between atoms: _101  and  _102
REMARK   43  A    between atoms: _101  and  _104
REMARK   44  A    between atoms: _104  and  _105
REMARK   45  A    between atoms: _105  and  _106
REMARK   46  A    between atoms: _106  and  _107
REMARK   47  A    between atoms: _116  and  _118
REMARK   48  A    between atoms: _118  and  _119
REMARK   49  A    between atoms: _118  and  _121
REMARK   50  A    between atoms: _121  and  _122
REMARK   51  A    between atoms: _127  and  _128
REMARK   52  A    between atoms: _130  and  _132
REMARK   53  A    between atoms: _132  and  _133
REMARK   54  A    between atoms: _135  and  _137
REMARK   55  A    between atoms: _137  and  _138
REMARK   56  A    between atoms: _137  and  _140
REMARK   57  A    between atoms: _140  and  _141
REMARK   58  A    between atoms: _143  and  _145
REMARK   59  A    between atoms: _145  and  _146
REMARK   60  A    between atoms: _145  and  _148
REMARK   61  A    between atoms: _151  and  _153
REMARK   62  A    between atoms: _153  and  _154
REMARK   63  A    between atoms: _157  and  _159
REMARK   64  A    between atoms: _159  and  _160
REMARK   65  A    between atoms: _159  and  _162
REMARK   66  A    between atoms: _162  and  _163
REMARK   67  A    between atoms: _166  and  _168
REMARK   68  A    between atoms: _168  and  _169
REMARK   69  A    between atoms: _168  and  _171
REMARK   70  A    between atoms: _171  and  _172
REMARK   71  A    between atoms: _175  and  _177
REMARK   72  A    between atoms: _177  and  _178
REMARK   73  A    between atoms: _181  and  _183
REMARK   74  A    between atoms: _183  and  _184
REMARK   75  A    between atoms: _187  and  _189
REMARK   76  A    between atoms: _189  and  _190
REMARK   77  A    between atoms: _189  and  _192
REMARK   78  A    between atoms: _192  and  _193
REMARK   79  A    between atoms: _193  and  _194
REMARK   80  A    between atoms: _197  and  _199
REMARK   81  A    between atoms: _199  and  _200
REMARK   82  A    between atoms: _203  and  _205
REMARK   83  A    between atoms: _205  and  _206
REMARK   84  A    between atoms: _205  and  _208
REMARK   85  A    between atoms: _208  and  _209
REMARK   86  A    between atoms: _212  and  _214
REMARK   87  A    between atoms: _214  and  _215
REMARK   88  A    between atoms: _214  and  _217
REMARK   89  A    between atoms: _217  and  _218
REMARK   90  A    between atoms: _223  and  _225
REMARK   91  A    between atoms: _225  and  _226
REMARK   92  A    between atoms: _228  and  _230
REMARK   93  A    between atoms: _230  and  _231
REMARK   94  A    between atoms: _230  and  _233
REMARK   95  A    between atoms: _233  and  _234
REMARK   96  A    between atoms: _234  and  _235
REMARK   97  A    between atoms: _238  and  _240
REMARK   98  A    between atoms: _240  and  _241
REMARK   99  A    between atoms: _240  and  _243
REMARK  100  A    between atoms: _243  and  _244
REMARK  101  A    between atoms: _249  and  _251
REMARK  102  A    between atoms: _251  and  _252
REMARK  103  A    between atoms: _251  and  _254
REMARK  104  A    between atoms: _257  and  _259
REMARK  105  A    between atoms: _259  and  _260
REMARK  106  A    between atoms: _259  and  _262
REMARK  107  A    between atoms: _262  and  _263
REMARK  108  A    between atoms: _263  and  _264
REMARK  109  A    between atoms: _266  and  _268
REMARK  110  A    between atoms: _268  and  _269
REMARK  111  A    between atoms: _272  and  _274
REMARK  112  A    between atoms: _274  and  _275
REMARK  113  A    between atoms: _274  and  _277
REMARK  114  A    between atoms: _277  and  _278
REMARK  115  A    between atoms: _281  and  _283
REMARK  116  A    between atoms: _283  and  _284
REMARK  117  A    between atoms: _283  and  _286
REMARK  118  A    between atoms: _286  and  _287
REMARK  119  A    between atoms: _290  and  _292
REMARK  120  A    between atoms: _292  and  _293
REMARK  121  A    between atoms: _292  and  _295
REMARK  122  A    between atoms: _295  and  _296
REMARK  123  A    between atoms: _302  and  _304
REMARK  124  A    between atoms: _304  and  _305
REMARK  125  A    between atoms: _308  and  _310
REMARK  126  A    between atoms: _310  and  _311
REMARK  127  A    between atoms: _310  and  _313
REMARK  128  A    between atoms: _313  and  _314
REMARK  129  A    between atoms: _317  and  _319
REMARK  130  A    between atoms: _319  and  _320
REMARK  131  A    between atoms: _319  and  _322
REMARK  132  A    between atoms: _322  and  _323
REMARK  133  A    between atoms: _323  and  _324
REMARK  134  A    between atoms: _324  and  _325
REMARK  135  A    between atoms: _334  and  _336
REMARK  136  A    between atoms: _336  and  _337
REMARK  137  A    between atoms: _336  and  _339
REMARK  138  A    between atoms: _339  and  _340
REMARK  139  A    between atoms: _343  and  _345
REMARK  140  A    between atoms: _345  and  _346
REMARK  141  A    between atoms: _345  and  _348
REMARK  142  A    between atoms: _348  and  _349
REMARK  143  A    between atoms: _349  and  _350
REMARK  144  A    between atoms: _350  and  _351
REMARK  145  A    between atoms: _360  and  _362
REMARK  146  A    between atoms: _362  and  _363
REMARK  147  A    between atoms: _362  and  _365
REMARK  148  A    between atoms: _365  and  _366
REMARK  149  A    between atoms: _371  and  _372
REMARK  150  A    between atoms: _374  and  _376
REMARK  151  A    between atoms: _376  and  _377
REMARK  152  A    between atoms: _376  and  _379
REMARK  153  A    between atoms: _382  and  _384
REMARK  154  A    between atoms: _384  and  _385
REMARK  155  A    between atoms: _388  and  _390
REMARK  156  A    between atoms: _390  and  _391
REMARK  157  A    between atoms: _390  and  _393
REMARK  158  A    between atoms: _393  and  _394
REMARK  159  A    between atoms: _396  and  _398
REMARK  160  A    between atoms: _398  and  _399
REMARK  161  A    between atoms: _398  and  _401
REMARK  162  A    between atoms: _401  and  _402
REMARK  163  A    between atoms: _407  and  _409
REMARK  164  A    between atoms: _409  and  _410
REMARK  165  A    between atoms: _413  and  _415
REMARK  166  A    between atoms: _415  and  _416
REMARK  167  A    between atoms: _419  and  _421
REMARK  168  A    between atoms: _421  and  _422
REMARK  169  A    between atoms: _421  and  _424
REMARK  170  A    between atoms: _424  and  _425
REMARK  171  A    between atoms: _430  and  _431
REMARK  172  A    between atoms: _433  and  _435
REMARK  173  A    between atoms: _435  and  _436
REMARK  174  A    between atoms: _435  and  _438
REMARK  175  A    between atoms: _438  and  _439
REMARK  176  A    between atoms: _441  and  _443
REMARK  177  A    between atoms: _443  and  _444
REMARK  178  A    between atoms: _447  and  _449
REMARK  179  A    between atoms: _449  and  _450
REMARK  180  A    between atoms: _449  and  _452
REMARK  181  A    between atoms: _452  and  _453
REMARK  182  A    between atoms: _453  and  _454
REMARK  183  A    between atoms: _454  and  _455
REMARK  184  A    between atoms: _464  and  _466
REMARK  185  A    between atoms: _466  and  _467
REMARK  186  A    between atoms: _466  and  _469
REMARK  187  A    between atoms: _472  and  _474
REMARK  188  A    between atoms: _474  and  _475
REMARK  189  A    between atoms: _474  and  _477
REMARK  190  A    between atoms: _477  and  _478
REMARK  191  A    between atoms: _478  and  _479
REMARK  192  A    between atoms: _482  and  _484
REMARK  193  A    between atoms: _484  and  _485
REMARK  194  A    between atoms: _484  and  _487
REMARK  195  A    between atoms: _487  and  _488
REMARK  196  A    between atoms: _490  and  _492
REMARK  197  A    between atoms: _492  and  _493
REMARK  198  A    between atoms: _492  and  _495
REMARK  199  A    between atoms: _495  and  _496
REMARK  200  A    between atoms: _496  and  _497
REMARK  201  A    between atoms: _497  and  _498
REMARK  202  A    between atoms: _507  and  _509
REMARK  203  A    between atoms: _509  and  _510
REMARK  204  A    between atoms: _513  and  _515
REMARK  205  A    between atoms: _515  and  _516
REMARK  206  A    between atoms: _515  and  _518
REMARK  207  A    between atoms: _518  and  _519
REMARK  208  A    between atoms: _519  and  _520
REMARK  209  A    between atoms: _520  and  _521
REMARK  210  A    between atoms: _530  and  _532
REMARK  211  A    between atoms: _532  and  _533
REMARK  212  A    between atoms: _532  and  _535
REMARK  213  A    between atoms: _535  and  _536
REMARK  214  A    between atoms: _539  and  _541
REMARK  215  A    between atoms: _541  and  _542
REMARK  216  A    between atoms: _544  and  _546
REMARK  217  A    between atoms: _546  and  _547
REMARK  218  A    between atoms: _546  and  _549
REMARK  219  A    between atoms: _549  and  _550
REMARK  220  A    between atoms: _550  and  _551
REMARK  221  A    between atoms: _551  and  _552
REMARK  222  A    between atoms: _561  and  _563
REMARK  223  A    between atoms: _563  and  _564
REMARK  224  A    between atoms: _567  and  _569
REMARK  225  A    between atoms: _569  and  _570
REMARK  226  A    between atoms: _569  and  _572
REMARK  227  A    between atoms: _572  and  _573
REMARK  228  A    between atoms: _573  and  _574
REMARK  229  A    between atoms: _574  and  _575
REMARK  230  A    between atoms: _584  and  _586
REMARK  231  A    between atoms: _586  and  _587
REMARK  232  A    between atoms: _586  and  _589
REMARK  233  A    between atoms: _589  and  _590
REMARK  234  A    between atoms: _593  and  _595
REMARK  235  A    between atoms: _595  and  _596
REMARK  236  A    between atoms: _595  and  _598
REMARK  237  A    between atoms: _598  and  _599
REMARK  238  A    between atoms: _604  and  _606
REMARK  239  A    between atoms: _606  and  _607
REMARK  240  A    between atoms: _606  and  _609
REMARK  241  A    between atoms: _609  and  _610
REMARK  242  A    between atoms: _615  and  _616
REMARK  243  A    between atoms: _618  and  _620
REMARK  244  A    between atoms: _620  and  _621
REMARK  245  A    between atoms: _620  and  _623
REMARK  246  A    between atoms: _623  and  _624
REMARK  247  A    between atoms: _624  and  _625
REMARK  248  A    between atoms: _625  and  _627
REMARK  249  A    between atoms: _627  and  MG_715
REMARK  250  A    between atoms: _628  and  _630
REMARK  251  A    between atoms: _630  and  _631
REMARK  252  A    between atoms: _630  and  _633
REMARK  253  A    between atoms: _633  and  _634
REMARK  254  A    between atoms: _634  and  _635
REMARK  255  A    between atoms: _635  and  _636
REMARK  256  A    between atoms: _645  and  _647
REMARK  257  A    between atoms: _647  and  _648
REMARK  258  A    between atoms: _647  and  _650
REMARK  259  A    between atoms: _650  and  _651
REMARK  260  A    between atoms: _654  and  _656
REMARK  261  A    between atoms: _656  and  _657
REMARK  262  A    between atoms: _656  and  _659
REMARK  263  A    between atoms: _659  and  _660
REMARK  264  A    between atoms: _663  and  _665
REMARK  265  A    between atoms: _665  and  _666
REMARK  266  A    between atoms: _665  and  _668
REMARK  267  A    between atoms: _668  and  _669
REMARK  268  A    between atoms: _669  and  _670
REMARK  269  A    between atoms: _675  and  _677
REMARK  270  A    between atoms: _677  and  _678
REMARK  271  A    between atoms: _677  and  _680
REMARK  272  A    between atoms: _680  and  _681
REMARK  273  A    between atoms: _684  and  _686
REMARK  274  A    between atoms: _686  and  _687
REMARK  275  A    between atoms: _686  and  _689
REMARK  276  A    between atoms: _689  and  _690
REMARK  277  A    between atoms: _695  and  _696
REMARK  278  A    between atoms: _698  and  _700
REMARK  279  A    between atoms: _700  and  _701
REMARK  280  A    between atoms: _700  and  _703
REMARK  281  A    between atoms: _703  and  _704
REMARK  282  A    between atoms: _704  and  _705
REMARK  283  A    between atoms: _705  and  _706
REMARK                            x       y       z     vdW  Elec       q    Type
REMARK                         _______ _______ _______ _____ _____    ______ ____
ROOT
ATOM      1  CA  ARG A   1      22.605  31.171   4.002  0.00  0.00    +0.145 C 
ENDROOT
BRANCH   1   2
ATOM      2  C   ARG A   1      23.609  30.711   2.945  0.00  0.00    +0.238 C 
ATOM      3  O   ARG A   1      24.519  31.455   2.586  0.00  0.00    -0.274 OA
ATOM      4  N   ASP A   2      23.440  29.495   2.434  0.00  0.00    -0.298 N 
ATOM      5  H   ASP A   2      22.639  28.911   2.749  0.00  0.00    +0.150 HD
BRANCH   4   6
ATOM      6  CA  ASP A   2      24.368  28.971   1.434  0.00  0.00    +0.148 C 
BRANCH   6   7
ATOM      7  C   ASP A   2      23.676  28.579   0.131  0.00  0.00    +0.227 C 
ATOM      8  O   ASP A   2      22.840  27.674   0.105  0.00  0.00    -0.286 OA
ENDBRANCH   6   7
BRANCH   6   9
ATOM      9  CB  ASP A   2      25.120  27.765   2.003  0.00  0.00    +0.142 C 
BRANCH   9  10
ATOM     10  CG  ASP A   2      26.518  27.620   1.420  0.00  0.00    +0.367 C 
ATOM     11  OD2 ASP A   2      27.484  27.654   2.217  0.00  0.00    -0.246 OA
ATOM     12  OD1 ASP A   2      26.651  27.477   0.180  0.00  0.00    -0.246 OA
ENDBRANCH   9  10
ENDBRANCH   6   9
ENDBRANCH   4   6
ENDBRANCH   1   2
BRANCH   1  13
ATOM     13  N   ARG A   1      21.420  30.317   4.119  0.00  0.00    -0.238 NA
ATOM     14  H   ARG A   1      21.355  29.642   4.907  0.00  0.00    +0.142 HD
ENDBRANCH   1  13
BRANCH   1  15
ATOM     15  CB  ARG A   1      23.316  31.297   5.364  0.00  0.00    +0.030 C 
BRANCH  15  16
ATOM     16  CG  ARG A   1      24.044  30.024   5.842  0.00  0.00    +0.045 C 
BRANCH  16  17
ATOM     17  CD  ARG A   1      24.640  30.167   7.256  0.00  0.00    +0.174 C 
BRANCH  17  18
ATOM     18  NE  ARG A   1      25.230  28.910   7.721  0.00  0.00    -0.265 N 
ATOM     19  CZ  ARG A   1      25.819  28.730   8.905  0.00  0.00    +0.342 C 
ATOM     20  NH2 ARG A   1      25.912  29.728   9.774  0.00  0.00    -0.292 N 
ATOM     21 HH21 ARG A   1      26.373  29.576  10.694  0.00  0.00    +0.255 HD
ATOM     22 HH22 ARG A   1      25.524  30.663   9.536  0.00  0.00    +0.255 HD
ATOM     23  NH1 ARG A   1      26.321  27.540   9.228  0.00  0.00    -0.292 N 
ATOM     24 HH11 ARG A   1      26.780  27.402  10.151  0.00  0.00    +0.255 HD
ATOM     25 HH12 ARG A   1      26.255  26.748   8.557  0.00  0.00    +0.255 HD
ATOM     26  HE  ARG A   1      25.187  28.094   7.078  0.00  0.00    +0.259 HD
ENDBRANCH  17  18
ENDBRANCH  16  17
ENDBRANCH  15  16
ENDBRANCH   1  15
TORSDOF 10
REMARK  Name = ../refined-set-2016/1mrn/1mrn_pocket.pdb
REMARK  283 active torsions:
REMARK  status: ('A' for Active; 'I' for Inactive)
REMARK    1  A    between atoms: _1  and  _3
REMARK    2  A    between atoms: _3  and  _4
REMARK    3  A    between atoms: _3  and  _6
REMARK    4  A    between atoms: _6  and  _7
REMARK    5  A    between atoms: _7  and  _8
REMARK    6  A    between atoms: _11  and  _13
REMARK    7  A    between atoms: _13  and  _14
REMARK    8  A    between atoms: _16  and  _18
REMARK    9  A    between atoms: _18  and  _19
REMARK   10  A    between atoms: _18  and  _21
REMARK   11  A    between atoms: _24  and  _26
REMARK   12  A    between atoms: _26  and  _27
REMARK   13  A    between atoms: _26  and  _29
REMARK   14  A    between atoms: _29  and  _30
REMARK   15  A    between atoms: _30  and  _31
REMARK   16  A    between atoms: _31  and  MG_715
REMARK   17  A    between atoms: _33  and  _35
REMARK   18  A    between atoms: _35  and  _36
REMARK   19  A    between atoms: _38  and  _40
REMARK   20  A    between atoms: _40  and  _41
REMARK   21  A    between atoms: _44  and  _46
REMARK   22  A    between atoms: _46  and  _47
REMARK   23  A    between atoms: _46  and  _49
REMARK   24  A    between atoms: _49  and  _50
REMARK   25  A    between atoms: _50  and  _51
REMARK   26  A    between atoms: _51  and  _52
REMARK   27  A    between atoms: _52  and  _53
REMARK   28  A    between atoms: _57  and  _59
REMARK   29  A    between atoms: _59  and  _60
REMARK   30  A    between atoms: _59  and  _62
REMARK   31  A    between atoms: _62  and  _63
REMARK   32  A    between atoms: _63  and  _64
REMARK   33  A    between atoms: _64  and  _65
REMARK   34  A    between atoms: _74  and  _76
REMARK   35  A    between atoms: _76  and  _77
REMARK   36  A    between atoms: _80  and  _82
REMARK   37  A    between atoms: _82  and  _83
REMARK   38  A    between atoms: _82  and  _85
REMARK   39  A    between atoms: _85  and  _86
REMARK   40  A    between atoms: _93  and  _94
REMARK   41  A    between atoms: _99  and  _101
REMARK   42  A    between atoms: _101  and  _102
REMARK   43  A    between atoms: _101  and  _104
REMARK   44  A    between atoms: _104  and  _105
REMARK   45  A    between atoms: _105  and  _106
REMARK   46  A    between atoms: _106  and  _107
REMARK   47  A    between atoms: _116  and  _118
REMARK   48  A    between atoms: _118  and  _119
REMARK   49  A    between atoms: _118  and  _121
REMARK   50  A    between atoms: _121  and  _122
REMARK   51  A    between atoms: _127  and  _128
REMARK   52  A    between atoms: _130  and  _132
REMARK   53  A    between atoms: _132  and  _133
REMARK   54  A    between atoms: _135  and  _137
REMARK   55  A    between atoms: _137  and  _138
REMARK   56  A    between atoms: _137  and  _140
REMARK   57  A    between atoms: _140  and  _141
REMARK   58  A    between atoms: _143  and  _145
REMARK   59  A    between atoms: _145  and  _146
REMARK   60  A    between atoms: _145  and  _148
REMARK   61  A    between atoms: _151  and  _153
REMARK   62  A    between atoms: _153  and  _154
REMARK   63  A    between atoms: _157  and  _159
REMARK   64  A    between atoms: _159  and  _160
REMARK   65  A    between atoms: _159  and  _162
REMARK   66  A    between atoms: _162  and  _163
REMARK   67  A    between atoms: _166  and  _168
REMARK   68  A    between atoms: _168  and  _169
REMARK   69  A    between atoms: _168  and  _171
REMARK   70  A    between atoms: _171  and  _172
REMARK   71  A    between atoms: _175  and  _177
REMARK   72  A    between atoms: _177  and  _178
REMARK   73  A    between atoms: _181  and  _183
REMARK   74  A    between atoms: _183  and  _184
REMARK   75  A    between atoms: _187  and  _189
REMARK   76  A    between atoms: _189  and  _190
REMARK   77  A    between atoms: _189  and  _192
REMARK   78  A    between atoms: _192  and  _193
REMARK   79  A    between atoms: _193  and  _194
REMARK   80  A    between atoms: _197  and  _199
REMARK   81  A    between atoms: _199  and  _200
REMARK   82  A    between atoms: _203  and  _205
REMARK   83  A    between atoms: _205  and  _206
REMARK   84  A    between atoms: _205  and  _208
REMARK   85  A    between atoms: _208  and  _209
REMARK   86  A    between atoms: _212  and  _214
REMARK   87  A    between atoms: _214  and  _215
REMARK   88  A    between atoms: _214  and  _217
REMARK   89  A    between atoms: _217  and  _218
REMARK   90  A    between atoms: _223  and  _225
REMARK   91  A    between atoms: _225  and  _226
REMARK   92  A    between atoms: _228  and  _230
REMARK   93  A    between atoms: _230  and  _231
REMARK   94  A    between atoms: _230  and  _233
REMARK   95  A    between atoms: _233  and  _234
REMARK   96  A    between atoms: _234  and  _235
REMARK   97  A    between atoms: _238  and  _240
REMARK   98  A    between atoms: _240  and  _241
REMARK   99  A    between atoms: _240  and  _243
REMARK  100  A    between atoms: _243  and  _244
REMARK  101  A    between atoms: _249  and  _251
REMARK  102  A    between atoms: _251  and  _252
REMARK  103  A    between atoms: _251  and  _254
REMARK  104  A    between atoms: _257  and  _259
REMARK  105  A    between atoms: _259  and  _260
REMARK  106  A    between atoms: _259  and  _262
REMARK  107  A    between atoms: _262  and  _263
REMARK  108  A    between atoms: _263  and  _264
REMARK  109  A    between atoms: _266  and  _268
REMARK  110  A    between atoms: _268  and  _269
REMARK  111  A    between atoms: _272  and  _274
REMARK  112  A    between atoms: _274  and  _275
REMARK  113  A    between atoms: _274  and  _277
REMARK  114  A    between atoms: _277  and  _278
REMARK  115  A    between atoms: _281  and  _283
REMARK  116  A    between atoms: _283  and  _284
REMARK  117  A    between atoms: _283  and  _286
REMARK  118  A    between atoms: _286  and  _287
REMARK  119  A    between atoms: _290  and  _292
REMARK  120  A    between atoms: _292  and  _293
REMARK  121  A    between atoms: _292  and  _295
REMARK  122  A    between atoms: _295  and  _296
REMARK  123  A    between atoms: _302  and  _304
REMARK  124  A    between atoms: _304  and  _305
REMARK  125  A    between atoms: _308  and  _310
REMARK  126  A    between atoms: _310  and  _311
REMARK  127  A    between atoms: _310  and  _313
REMARK  128  A    between atoms: _313  and  _314
REMARK  129  A    between atoms: _317  and  _319
REMARK  130  A    between atoms: _319  and  _320
REMARK  131  A    between atoms: _319  and  _322
REMARK  132  A    between atoms: _322  and  _323
REMARK  133  A    between atoms: _323  and  _324
REMARK  134  A    between atoms: _324  and  _325
REMARK  135  A    between atoms: _334  and  _336
REMARK  136  A    between atoms: _336  and  _337
REMARK  137  A    between atoms: _336  and  _339
REMARK  138  A    between atoms: _339  and  _340
REMARK  139  A    between atoms: _343  and  _345
REMARK  140  A    between atoms: _345  and  _346
REMARK  141  A    between atoms: _345  and  _348
REMARK  142  A    between atoms: _348  and  _349
REMARK  143  A    between atoms: _349  and  _350
REMARK  144  A    between atoms: _350  and  _351
REMARK  145  A    between atoms: _360  and  _362
REMARK  146  A    between atoms: _362  and  _363
REMARK  147  A    between atoms: _362  and  _365
REMARK  148  A    between atoms: _365  and  _366
REMARK  149  A    between atoms: _371  and  _372
REMARK  150  A    between atoms: _374  and  _376
REMARK  151  A    between atoms: _376  and  _377
REMARK  152  A    between atoms: _376  and  _379
REMARK  153  A    between atoms: _382  and  _384
REMARK  154  A    between atoms: _384  and  _385
REMARK  155  A    between atoms: _388  and  _390
REMARK  156  A    between atoms: _390  and  _391
REMARK  157  A    between atoms: _390  and  _393
REMARK  158  A    between atoms: _393  and  _394
REMARK  159  A    between atoms: _396  and  _398
REMARK  160  A    between atoms: _398  and  _399
REMARK  161  A    between atoms: _398  and  _401
REMARK  162  A    between atoms: _401  and  _402
REMARK  163  A    between atoms: _407  and  _409
REMARK  164  A    between atoms: _409  and  _410
REMARK  165  A    between atoms: _413  and  _415
REMARK  166  A    between atoms: _415  and  _416
REMARK  167  A    between atoms: _419  and  _421
REMARK  168  A    between atoms: _421  and  _422
REMARK  169  A    between atoms: _421  and  _424
REMARK  170  A    between atoms: _424  and  _425
REMARK  171  A    between atoms: _430  and  _431
REMARK  172  A    between atoms: _433  and  _435
REMARK  173  A    between atoms: _435  and  _436
REMARK  174  A    between atoms: _435  and  _438
REMARK  175  A    between atoms: _438  and  _439
REMARK  176  A    between atoms: _441  and  _443
REMARK  177  A    between atoms: _443  and  _444
REMARK  178  A    between atoms: _447  and  _449
REMARK  179  A    between atoms: _449  and  _450
REMARK  180  A    between atoms: _449  and  _452
REMARK  181  A    between atoms: _452  and  _453
REMARK  182  A    between atoms: _453  and  _454
REMARK  183  A    between atoms: _454  and  _455
REMARK  184  A    between atoms: _464  and  _466
REMARK  185  A    between atoms: _466  and  _467
REMARK  186  A    between atoms: _466  and  _469
REMARK  187  A    between atoms: _472  and  _474
REMARK  188  A    between atoms: _474  and  _475
REMARK  189  A    between atoms: _474  and  _477
REMARK  190  A    between atoms: _477  and  _478
REMARK  191  A    between atoms: _478  and  _479
REMARK  192  A    between atoms: _482  and  _484
REMARK  193  A    between atoms: _484  and  _485
REMARK  194  A    between atoms: _484  and  _487
REMARK  195  A    between atoms: _487  and  _488
REMARK  196  A    between atoms: _490  and  _492
REMARK  197  A    between atoms: _492  and  _493
REMARK  198  A    between atoms: _492  and  _495
REMARK  199  A    between atoms: _495  and  _496
REMARK  200  A    between atoms: _496  and  _497
REMARK  201  A    between atoms: _497  and  _498
REMARK  202  A    between atoms: _507  and  _509
REMARK  203  A    between atoms: _509  and  _510
REMARK  204  A    between atoms: _513  and  _515
REMARK  205  A    between atoms: _515  and  _516
REMARK  206  A    between atoms: _515  and  _518
REMARK  207  A    between atoms: _518  and  _519
REMARK  208  A    between atoms: _519  and  _520
REMARK  209  A    between atoms: _520  and  _521
REMARK  210  A    between atoms: _530  and  _532
REMARK  211  A    between atoms: _532  and  _533
REMARK  212  A    between atoms: _532  and  _535
REMARK  213  A    between atoms: _535  and  _536
REMARK  214  A    between atoms: _539  and  _541
REMARK  215  A    between atoms: _541  and  _542
REMARK  216  A    between atoms: _544  and  _546
REMARK  217  A    between atoms: _546  and  _547
REMARK  218  A    between atoms: _546  and  _549
REMARK  219  A    between atoms: _549  and  _550
REMARK  220  A    between atoms: _550  and  _551
REMARK  221  A    between atoms: _551  and  _552
REMARK  222  A    between atoms: _561  and  _563
REMARK  223  A    between atoms: _563  and  _564
REMARK  224  A    between atoms: _567  and  _569
REMARK  225  A    between atoms: _569  and  _570
REMARK  226  A    between atoms: _569  and  _572
REMARK  227  A    between atoms: _572  and  _573
REMARK  228  A    between atoms: _573  and  _574
REMARK  229  A    between atoms: _574  and  _575
REMARK  230  A    between atoms: _584  and  _586
REMARK  231  A    between atoms: _586  and  _587
REMARK  232  A    between atoms: _586  and  _589
REMARK  233  A    between atoms: _589  and  _590
REMARK  234  A    between atoms: _593  and  _595
REMARK  235  A    between atoms: _595  and  _596
REMARK  236  A    between atoms: _595  and  _598
REMARK  237  A    between atoms: _598  and  _599
REMARK  238  A    between atoms: _604  and  _606
REMARK  239  A    between atoms: _606  and  _607
REMARK  240  A    between atoms: _606  and  _609
REMARK  241  A    between atoms: _609  and  _610
REMARK  242  A    between atoms: _615  and  _616
REMARK  243  A    between atoms: _618  and  _620
REMARK  244  A    between atoms: _620  and  _621
REMARK  245  A    between atoms: _620  and  _623
REMARK  246  A    between atoms: _623  and  _624
REMARK  247  A    between atoms: _624  and  _625
REMARK  248  A    between atoms: _625  and  _627
REMARK  249  A    between atoms: _627  and  MG_715
REMARK  250  A    between atoms: _628  and  _630
REMARK  251  A    between atoms: _630  and  _631
REMARK  252  A    between atoms: _630  and  _633
REMARK  253  A    between atoms: _633  and  _634
REMARK  254  A    between atoms: _634  and  _635
REMARK  255  A    between atoms: _635  and  _636
REMARK  256  A    between atoms: _645  and  _647
REMARK  257  A    between atoms: _647  and  _648
REMARK  258  A    between atoms: _647  and  _650
REMARK  259  A    between atoms: _650  and  _651
REMARK  260  A    between atoms: _654  and  _656
REMARK  261  A    between atoms: _656  and  _657
REMARK  262  A    between atoms: _656  and  _659
REMARK  263  A    between atoms: _659  and  _660
REMARK  264  A    between atoms: _663  and  _665
REMARK  265  A    between atoms: _665  and  _666
REMARK  266  A    between atoms: _665  and  _668
REMARK  267  A    between atoms: _668  and  _669
REMARK  268  A    between atoms: _669  and  _670
REMARK  269  A    between atoms: _675  and  _677
REMARK  270  A    between atoms: _677  and  _678
REMARK  271  A    between atoms: _677  and  _680
REMARK  272  A    between atoms: _680  and  _681
REMARK  273  A    between atoms: _684  and  _686
REMARK  274  A    between atoms: _686  and  _687
REMARK  275  A    between atoms: _686  and  _689
REMARK  276  A    between atoms: _689  and  _690
REMARK  277  A    between atoms: _695  and  _696
REMARK  278  A    between atoms: _698  and  _700
REMARK  279  A    between atoms: _700  and  _701
REMARK  280  A    between atoms: _700  and  _703
REMARK  281  A    between atoms: _703  and  _704
REMARK  282  A    between atoms: _704  and  _705
REMARK  283  A    between atoms: _705  and  _706
REMARK                            x       y       z     vdW  Elec       q    Type
REMARK                         _______ _______ _______ _____ _____    ______ ____
ROOT
ATOM      1  C   LEU A   1      13.851  12.628  13.414  0.00  0.00    +0.238 C 
ATOM      2  O   LEU A   1      14.440  11.912  14.221  0.00  0.00    -0.274 OA
ATOM      3  N   GLN A   2      14.090  13.930  13.283  0.00  0.00    -0.298 N 
ATOM      4  H   GLN A   2      13.560  14.467  12.567  0.00  0.00    +0.150 HD
ENDROOT
BRANCH   1   5
ATOM      5  CA  LEU A   1      12.780  12.049  12.497  0.00  0.00    +0.145 C 
BRANCH   5   6
ATOM      6  N   LEU A   1      11.634  12.963  12.495  0.00  0.00    -0.238 NA
ATOM      7  H   LEU A   1      11.405  13.498  11.633  0.00  0.00    +0.142 HD
ENDBRANCH   5   6
BRANCH   5   8
ATOM      8  CB  LEU A   1      13.352  11.881  11.085  0.00  0.00    +0.026 C 
BRANCH   8   9
ATOM      9  CG  LEU A   1      14.699  11.155  10.974  0.00  0.00    +0.002 C 
ATOM     10  CD2 LEU A   1      14.540   9.709  11.443  0.00  0.00    +0.000 C 
ATOM     11  CD1 LEU A   1      15.200  11.211   9.521  0.00  0.00    +0.000 C 
ENDBRANCH   8   9
ENDBRANCH   5   8
ENDBRANCH   1   5
BRANCH   3  12
ATOM     12  CA  GLN A   2      15.069  14.632  14.108  0.00  0.00    +0.137 C 
BRANCH  12  13
ATOM     13  C   GLN A   2      14.760  14.504  15.604  0.00  0.00    +0.227 C 
ATOM     14  O   GLN A   2      15.661  14.325  16.420  0.00  0.00    -0.286 OA
ENDBRANCH  12  13
BRANCH  12  15
ATOM     15  CB  GLN A   2      15.109  16.112  13.724  0.00  0.00    +0.037 C 
BRANCH  15  16
ATOM     16  CG  GLN A   2      15.611  16.382  12.306  0.00  0.00    +0.087 C 
BRANCH  16  17
ATOM     17  CD  GLN A   2      17.036  15.899  12.096  0.00  0.00    +0.219 C 
ATOM     18  OE1 GLN A   2      17.911  16.094  12.949  0.00  0.00    -0.275 OA
ATOM     19  NE2 GLN A   2      17.281  15.274  10.954  0.00  0.00    -0.329 N 
ATOM     20 HE21 GLN A   2      18.239  14.926  10.747  0.00  0.00    +0.145 HD
ATOM     21 HE22 GLN A   2      16.515  15.131  10.265  0.00  0.00    +0.145 HD
ENDBRANCH  16  17
ENDBRANCH  15  16
ENDBRANCH  12  15
ENDBRANCH   3  12
TORSDOF 9
REMARK  Name = ../refined-set-2016/1mrn/1mrn_pocket.pdb
REMARK  283 active torsions:
REMARK  status: ('A' for Active; 'I' for Inactive)
REMARK    1  A    between atoms: _1  and  _3
REMARK    2  A    between atoms: _3  and  _4
REMARK    3  A    between atoms: _3  and  _6
REMARK    4  A    between atoms: _6  and  _7
REMARK    5  A    between atoms: _7  and  _8
REMARK    6  A    between atoms: _11  and  _13
REMARK    7  A    between atoms: _13  and  _14
REMARK    8  A    between atoms: _16  and  _18
REMARK    9  A    between atoms: _18  and  _19
REMARK   10  A    between atoms: _18  and  _21
REMARK   11  A    between atoms: _24  and  _26
REMARK   12  A    between atoms: _26  and  _27
REMARK   13  A    between atoms: _26  and  _29
REMARK   14  A    between atoms: _29  and  _30
REMARK   15  A    between atoms: _30  and  _31
REMARK   16  A    between atoms: _31  and  MG_715
REMARK   17  A    between atoms: _33  and  _35
REMARK   18  A    between atoms: _35  and  _36
REMARK   19  A    between atoms: _38  and  _40
REMARK   20  A    between atoms: _40  and  _41
REMARK   21  A    between atoms: _44  and  _46
REMARK   22  A    between atoms: _46  and  _47
REMARK   23  A    between atoms: _46  and  _49
REMARK   24  A    between atoms: _49  and  _50
REMARK   25  A    between atoms: _50  and  _51
REMARK   26  A    between atoms: _51  and  _52
REMARK   27  A    between atoms: _52  and  _53
REMARK   28  A    between atoms: _57  and  _59
REMARK   29  A    between atoms: _59  and  _60
REMARK   30  A    between atoms: _59  and  _62
REMARK   31  A    between atoms: _62  and  _63
REMARK   32  A    between atoms: _63  and  _64
REMARK   33  A    between atoms: _64  and  _65
REMARK   34  A    between atoms: _74  and  _76
REMARK   35  A    between atoms: _76  and  _77
REMARK   36  A    between atoms: _80  and  _82
REMARK   37  A    between atoms: _82  and  _83
REMARK   38  A    between atoms: _82  and  _85
REMARK   39  A    between atoms: _85  and  _86
REMARK   40  A    between atoms: _93  and  _94
REMARK   41  A    between atoms: _99  and  _101
REMARK   42  A    between atoms: _101  and  _102
REMARK   43  A    between atoms: _101  and  _104
REMARK   44  A    between atoms: _104  and  _105
REMARK   45  A    between atoms: _105  and  _106
REMARK   46  A    between atoms: _106  and  _107
REMARK   47  A    between atoms: _116  and  _118
REMARK   48  A    between atoms: _118  and  _119
REMARK   49  A    between atoms: _118  and  _121
REMARK   50  A    between atoms: _121  and  _122
REMARK   51  A    between atoms: _127  and  _128
REMARK   52  A    between atoms: _130  and  _132
REMARK   53  A    between atoms: _132  and  _133
REMARK   54  A    between atoms: _135  and  _137
REMARK   55  A    between atoms: _137  and  _138
REMARK   56  A    between atoms: _137  and  _140
REMARK   57  A    between atoms: _140  and  _141
REMARK   58  A    between atoms: _143  and  _145
REMARK   59  A    between atoms: _145  and  _146
REMARK   60  A    between atoms: _145  and  _148
REMARK   61  A    between atoms: _151  and  _153
REMARK   62  A    between atoms: _153  and  _154
REMARK   63  A    between atoms: _157  and  _159
REMARK   64  A    between atoms: _159  and  _160
REMARK   65  A    between atoms: _159  and  _162
REMARK   66  A    between atoms: _162  and  _163
REMARK   67  A    between atoms: _166  and  _168
REMARK   68  A    between atoms: _168  and  _169
REMARK   69  A    between atoms: _168  and  _171
REMARK   70  A    between atoms: _171  and  _172
REMARK   71  A    between atoms: _175  and  _177
REMARK   72  A    between atoms: _177  and  _178
REMARK   73  A    between atoms: _181  and  _183
REMARK   74  A    between atoms: _183  and  _184
REMARK   75  A    between atoms: _187  and  _189
REMARK   76  A    between atoms: _189  and  _190
REMARK   77  A    between atoms: _189  and  _192
REMARK   78  A    between atoms: _192  and  _193
REMARK   79  A    between atoms: _193  and  _194
REMARK   80  A    between atoms: _197  and  _199
REMARK   81  A    between atoms: _199  and  _200
REMARK   82  A    between atoms: _203  and  _205
REMARK   83  A    between atoms: _205  and  _206
REMARK   84  A    between atoms: _205  and  _208
REMARK   85  A    between atoms: _208  and  _209
REMARK   86  A    between atoms: _212  and  _214
REMARK   87  A    between atoms: _214  and  _215
REMARK   88  A    between atoms: _214  and  _217
REMARK   89  A    between atoms: _217  and  _218
REMARK   90  A    between atoms: _223  and  _225
REMARK   91  A    between atoms: _225  and  _226
REMARK   92  A    between atoms: _228  and  _230
REMARK   93  A    between atoms: _230  and  _231
REMARK   94  A    between atoms: _230  and  _233
REMARK   95  A    between atoms: _233  and  _234
REMARK   96  A    between atoms: _234  and  _235
REMARK   97  A    between atoms: _238  and  _240
REMARK   98  A    between atoms: _240  and  _241
REMARK   99  A    between atoms: _240  and  _243
REMARK  100  A    between atoms: _243  and  _244
REMARK  101  A    between atoms: _249  and  _251
REMARK  102  A    between atoms: _251  and  _252
REMARK  103  A    between atoms: _251  and  _254
REMARK  104  A    between atoms: _257  and  _259
REMARK  105  A    between atoms: _259  and  _260
REMARK  106  A    between atoms: _259  and  _262
REMARK  107  A    between atoms: _262  and  _263
REMARK  108  A    between atoms: _263  and  _264
REMARK  109  A    between atoms: _266  and  _268
REMARK  110  A    between atoms: _268  and  _269
REMARK  111  A    between atoms: _272  and  _274
REMARK  112  A    between atoms: _274  and  _275
REMARK  113  A    between atoms: _274  and  _277
REMARK  114  A    between atoms: _277  and  _278
REMARK  115  A    between atoms: _281  and  _283
REMARK  116  A    between atoms: _283  and  _284
REMARK  117  A    between atoms: _283  and  _286
REMARK  118  A    between atoms: _286  and  _287
REMARK  119  A    between atoms: _290  and  _292
REMARK  120  A    between atoms: _292  and  _293
REMARK  121  A    between atoms: _292  and  _295
REMARK  122  A    between atoms: _295  and  _296
REMARK  123  A    between atoms: _302  and  _304
REMARK  124  A    between atoms: _304  and  _305
REMARK  125  A    between atoms: _308  and  _310
REMARK  126  A    between atoms: _310  and  _311
REMARK  127  A    between atoms: _310  and  _313
REMARK  128  A    between atoms: _313  and  _314
REMARK  129  A    between atoms: _317  and  _319
REMARK  130  A    between atoms: _319  and  _320
REMARK  131  A    between atoms: _319  and  _322
REMARK  132  A    between atoms: _322  and  _323
REMARK  133  A    between atoms: _323  and  _324
REMARK  134  A    between atoms: _324  and  _325
REMARK  135  A    between atoms: _334  and  _336
REMARK  136  A    between atoms: _336  and  _337
REMARK  137  A    between atoms: _336  and  _339
REMARK  138  A    between atoms: _339  and  _340
REMARK  139  A    between atoms: _343  and  _345
REMARK  140  A    between atoms: _345  and  _346
REMARK  141  A    between atoms: _345  and  _348
REMARK  142  A    between atoms: _348  and  _349
REMARK  143  A    between atoms: _349  and  _350
REMARK  144  A    between atoms: _350  and  _351
REMARK  145  A    between atoms: _360  and  _362
REMARK  146  A    between atoms: _362  and  _363
REMARK  147  A    between atoms: _362  and  _365
REMARK  148  A    between atoms: _365  and  _366
REMARK  149  A    between atoms: _371  and  _372
REMARK  150  A    between atoms: _374  and  _376
REMARK  151  A    between atoms: _376  and  _377
REMARK  152  A    between atoms: _376  and  _379
REMARK  153  A    between atoms: _382  and  _384
REMARK  154  A    between atoms: _384  and  _385
REMARK  155  A    between atoms: _388  and  _390
REMARK  156  A    between atoms: _390  and  _391
REMARK  157  A    between atoms: _390  and  _393
REMARK  158  A    between atoms: _393  and  _394
REMARK  159  A    between atoms: _396  and  _398
REMARK  160  A    between atoms: _398  and  _399
REMARK  161  A    between atoms: _398  and  _401
REMARK  162  A    between atoms: _401  and  _402
REMARK  163  A    between atoms: _407  and  _409
REMARK  164  A    between atoms: _409  and  _410
REMARK  165  A    between atoms: _413  and  _415
REMARK  166  A    between atoms: _415  and  _416
REMARK  167  A    between atoms: _419  and  _421
REMARK  168  A    between atoms: _421  and  _422
REMARK  169  A    between atoms: _421  and  _424
REMARK  170  A    between atoms: _424  and  _425
REMARK  171  A    between atoms: _430  and  _431
REMARK  172  A    between atoms: _433  and  _435
REMARK  173  A    between atoms: _435  and  _436
REMARK  174  A    between atoms: _435  and  _438
REMARK  175  A    between atoms: _438  and  _439
REMARK  176  A    between atoms: _441  and  _443
REMARK  177  A    between atoms: _443  and  _444
REMARK  178  A    between atoms: _447  and  _449
REMARK  179  A    between atoms: _449  and  _450
REMARK  180  A    between atoms: _449  and  _452
REMARK  181  A    between atoms: _452  and  _453
REMARK  182  A    between atoms: _453  and  _454
REMARK  183  A    between atoms: _454  and  _455
REMARK  184  A    between atoms: _464  and  _466
REMARK  185  A    between atoms: _466  and  _467
REMARK  186  A    between atoms: _466  and  _469
REMARK  187  A    between atoms: _472  and  _474
REMARK  188  A    between atoms: _474  and  _475
REMARK  189  A    between atoms: _474  and  _477
REMARK  190  A    between atoms: _477  and  _478
REMARK  191  A    between atoms: _478  and  _479
REMARK  192  A    between atoms: _482  and  _484
REMARK  193  A    between atoms: _484  and  _485
REMARK  194  A    between atoms: _484  and  _487
REMARK  195  A    between atoms: _487  and  _488
REMARK  196  A    between atoms: _490  and  _492
REMARK  197  A    between atoms: _492  and  _493
REMARK  198  A    between atoms: _492  and  _495
REMARK  199  A    between atoms: _495  and  _496
REMARK  200  A    between atoms: _496  and  _497
REMARK  201  A    between atoms: _497  and  _498
REMARK  202  A    between atoms: _507  and  _509
REMARK  203  A    between atoms: _509  and  _510
REMARK  204  A    between atoms: _513  and  _515
REMARK  205  A    between atoms: _515  and  _516
REMARK  206  A    between atoms: _515  and  _518
REMARK  207  A    between atoms: _518  and  _519
REMARK  208  A    between atoms: _519  and  _520
REMARK  209  A    between atoms: _520  and  _521
REMARK  210  A    between atoms: _530  and  _532
REMARK  211  A    between atoms: _532  and  _533
REMARK  212  A    between atoms: _532  and  _535
REMARK  213  A    between atoms: _535  and  _536
REMARK  214  A    between atoms: _539  and  _541
REMARK  215  A    between atoms: _541  and  _542
REMARK  216  A    between atoms: _544  and  _546
REMARK  217  A    between atoms: _546  and  _547
REMARK  218  A    between atoms: _546  and  _549
REMARK  219  A    between atoms: _549  and  _550
REMARK  220  A    between atoms: _550  and  _551
REMARK  221  A    between atoms: _551  and  _552
REMARK  222  A    between atoms: _561  and  _563
REMARK  223  A    between atoms: _563  and  _564
REMARK  224  A    between atoms: _567  and  _569
REMARK  225  A    between atoms: _569  and  _570
REMARK  226  A    between atoms: _569  and  _572
REMARK  227  A    between atoms: _572  and  _573
REMARK  228  A    between atoms: _573  and  _574
REMARK  229  A    between atoms: _574  and  _575
REMARK  230  A    between atoms: _584  and  _586
REMARK  231  A    between atoms: _586  and  _587
REMARK  232  A    between atoms: _586  and  _589
REMARK  233  A    between atoms: _589  and  _590
REMARK  234  A    between atoms: _593  and  _595
REMARK  235  A    between atoms: _595  and  _596
REMARK  236  A    between atoms: _595  and  _598
REMARK  237  A    between atoms: _598  and  _599
REMARK  238  A    between atoms: _604  and  _606
REMARK  239  A    between atoms: _606  and  _607
REMARK  240  A    between atoms: _606  and  _609
REMARK  241  A    between atoms: _609  and  _610
REMARK  242  A    between atoms: _615  and  _616
REMARK  243  A    between atoms: _618  and  _620
REMARK  244  A    between atoms: _620  and  _621
REMARK  245  A    between atoms: _620  and  _623
REMARK  246  A    between atoms: _623  and  _624
REMARK  247  A    between atoms: _624  and  _625
REMARK  248  A    between atoms: _625  and  _627
REMARK  249  A    between atoms: _627  and  MG_715
REMARK  250  A    between atoms: _628  and  _630
REMARK  251  A    between atoms: _630  and  _631
REMARK  252  A    between atoms: _630  and  _633
REMARK  253  A    between atoms: _633  and  _634
REMARK  254  A    between atoms: _634  and  _635
REMARK  255  A    between atoms: _635  and  _636
REMARK  256  A    between atoms: _645  and  _647
REMARK  257  A    between atoms: _647  and  _648
REMARK  258  A    between atoms: _647  and  _650
REMARK  259  A    between atoms: _650  and  _651
REMARK  260  A    between atoms: _654  and  _656
REMARK  261  A    between atoms: _656  and  _657
REMARK  262  A    between atoms: _656  and  _659
REMARK  263  A    between atoms: _659  and  _660
REMARK  264  A    between atoms: _663  and  _665
REMARK  265  A    between atoms: _665  and  _666
REMARK  266  A    between atoms: _665  and  _668
REMARK  267  A    between atoms: _668  and  _669
REMARK  268  A    between atoms: _669  and  _670
REMARK  269  A    between atoms: _675  and  _677
REMARK  270  A    between atoms: _677  and  _678
REMARK  271  A    between atoms: _677  and  _680
REMARK  272  A    between atoms: _680  and  _681
REMARK  273  A    between atoms: _684  and  _686
REMARK  274  A    between atoms: _686  and  _687
REMARK  275  A    between atoms: _686  and  _689
REMARK  276  A    between atoms: _689  and  _690
REMARK  277  A    between atoms: _695  and  _696
REMARK  278  A    between atoms: _698  and  _700
REMARK  279  A    between atoms: _700  and  _701
REMARK  280  A    between atoms: _700  and  _703
REMARK  281  A    between atoms: _703  and  _704
REMARK  282  A    between atoms: _704  and  _705
REMARK  283  A    between atoms: _705  and  _706
REMARK                            x       y       z     vdW  Elec       q    Type
REMARK                         _______ _______ _______ _____ _____    ______ ____
ROOT
ATOM      1  CA  THR A   1      16.754  10.621  16.880  0.00  0.00    +0.160 C 
ENDROOT
BRANCH   1   2
ATOM      2  N   THR A   1      15.323  10.919  16.873  0.00  0.00    -0.237 NA
ATOM      3  H   THR A   1      14.959  11.637  16.214  0.00  0.00    +0.142 HD
ENDBRANCH   1   2
BRANCH   1   4
ATOM      4  C   THR A   1      17.319  11.234  18.159  0.00  0.00    +0.227 C 
ATOM      5  O   THR A   1      18.153  10.626  18.860  0.00  0.00    -0.287 OA
ENDBRANCH   1   4
BRANCH   1   6
ATOM      6  CB  THR A   1      17.457  11.236  15.640  0.00  0.00    +0.134 C 
ATOM      7  CG2 THR A   1      18.918  10.837  15.591  0.00  0.00    +0.034 C 
BRANCH   6   8
ATOM      8  OG1 THR A   1      16.802  10.796  14.446  0.00  0.00    -0.383 OA
ATOM      9  HG1 THR A   1      15.855  11.086  14.464  0.00  0.00    +0.210 HD
ENDBRANCH   6   8
ENDBRANCH   1   6
TORSDOF 4
REMARK  Name = ../refined-set-2016/1mrn/1mrn_pocket.pdb
REMARK  283 active torsions:
REMARK  status: ('A' for Active; 'I' for Inactive)
REMARK    1  A    between atoms: _1  and  _3
REMARK    2  A    between atoms: _3  and  _4
REMARK    3  A    between atoms: _3  and  _6
REMARK    4  A    between atoms: _6  and  _7
REMARK    5  A    between atoms: _7  and  _8
REMARK    6  A    between atoms: _11  and  _13
REMARK    7  A    between atoms: _13  and  _14
REMARK    8  A    between atoms: _16  and  _18
REMARK    9  A    between atoms: _18  and  _19
REMARK   10  A    between atoms: _18  and  _21
REMARK   11  A    between atoms: _24  and  _26
REMARK   12  A    between atoms: _26  and  _27
REMARK   13  A    between atoms: _26  and  _29
REMARK   14  A    between atoms: _29  and  _30
REMARK   15  A    between atoms: _30  and  _31
REMARK   16  A    between atoms: _31  and  MG_715
REMARK   17  A    between atoms: _33  and  _35
REMARK   18  A    between atoms: _35  and  _36
REMARK   19  A    between atoms: _38  and  _40
REMARK   20  A    between atoms: _40  and  _41
REMARK   21  A    between atoms: _44  and  _46
REMARK   22  A    between atoms: _46  and  _47
REMARK   23  A    between atoms: _46  and  _49
REMARK   24  A    between atoms: _49  and  _50
REMARK   25  A    between atoms: _50  and  _51
REMARK   26  A    between atoms: _51  and  _52
REMARK   27  A    between atoms: _52  and  _53
REMARK   28  A    between atoms: _57  and  _59
REMARK   29  A    between atoms: _59  and  _60
REMARK   30  A    between atoms: _59  and  _62
REMARK   31  A    between atoms: _62  and  _63
REMARK   32  A    between atoms: _63  and  _64
REMARK   33  A    between atoms: _64  and  _65
REMARK   34  A    between atoms: _74  and  _76
REMARK   35  A    between atoms: _76  and  _77
REMARK   36  A    between atoms: _80  and  _82
REMARK   37  A    between atoms: _82  and  _83
REMARK   38  A    between atoms: _82  and  _85
REMARK   39  A    between atoms: _85  and  _86
REMARK   40  A    between atoms: _93  and  _94
REMARK   41  A    between atoms: _99  and  _101
REMARK   42  A    between atoms: _101  and  _102
REMARK   43  A    between atoms: _101  and  _104
REMARK   44  A    between atoms: _104  and  _105
REMARK   45  A    between atoms: _105  and  _106
REMARK   46  A    between atoms: _106  and  _107
REMARK   47  A    between atoms: _116  and  _118
REMARK   48  A    between atoms: _118  and  _119
REMARK   49  A    between atoms: _118  and  _121
REMARK   50  A    between atoms: _121  and  _122
REMARK   51  A    between atoms: _127  and  _128
REMARK   52  A    between atoms: _130  and  _132
REMARK   53  A    between atoms: _132  and  _133
REMARK   54  A    between atoms: _135  and  _137
REMARK   55  A    between atoms: _137  and  _138
REMARK   56  A    between atoms: _137  and  _140
REMARK   57  A    between atoms: _140  and  _141
REMARK   58  A    between atoms: _143  and  _145
REMARK   59  A    between atoms: _145  and  _146
REMARK   60  A    between atoms: _145  and  _148
REMARK   61  A    between atoms: _151  and  _153
REMARK   62  A    between atoms: _153  and  _154
REMARK   63  A    between atoms: _157  and  _159
REMARK   64  A    between atoms: _159  and  _160
REMARK   65  A    between atoms: _159  and  _162
REMARK   66  A    between atoms: _162  and  _163
REMARK   67  A    between atoms: _166  and  _168
REMARK   68  A    between atoms: _168  and  _169
REMARK   69  A    between atoms: _168  and  _171
REMARK   70  A    between atoms: _171  and  _172
REMARK   71  A    between atoms: _175  and  _177
REMARK   72  A    between atoms: _177  and  _178
REMARK   73  A    between atoms: _181  and  _183
REMARK   74  A    between atoms: _183  and  _184
REMARK   75  A    between atoms: _187  and  _189
REMARK   76  A    between atoms: _189  and  _190
REMARK   77  A    between atoms: _189  and  _192
REMARK   78  A    between atoms: _192  and  _193
REMARK   79  A    between atoms: _193  and  _194
REMARK   80  A    between atoms: _197  and  _199
REMARK   81  A    between atoms: _199  and  _200
REMARK   82  A    between atoms: _203  and  _205
REMARK   83  A    between atoms: _205  and  _206
REMARK   84  A    between atoms: _205  and  _208
REMARK   85  A    between atoms: _208  and  _209
REMARK   86  A    between atoms: _212  and  _214
REMARK   87  A    between atoms: _214  and  _215
REMARK   88  A    between atoms: _214  and  _217
REMARK   89  A    between atoms: _217  and  _218
REMARK   90  A    between atoms: _223  and  _225
REMARK   91  A    between atoms: _225  and  _226
REMARK   92  A    between atoms: _228  and  _230
REMARK   93  A    between atoms: _230  and  _231
REMARK   94  A    between atoms: _230  and  _233
REMARK   95  A    between atoms: _233  and  _234
REMARK   96  A    between atoms: _234  and  _235
REMARK   97  A    between atoms: _238  and  _240
REMARK   98  A    between atoms: _240  and  _241
REMARK   99  A    between atoms: _240  and  _243
REMARK  100  A    between atoms: _243  and  _244
REMARK  101  A    between atoms: _249  and  _251
REMARK  102  A    between atoms: _251  and  _252
REMARK  103  A    between atoms: _251  and  _254
REMARK  104  A    between atoms: _257  and  _259
REMARK  105  A    between atoms: _259  and  _260
REMARK  106  A    between atoms: _259  and  _262
REMARK  107  A    between atoms: _262  and  _263
REMARK  108  A    between atoms: _263  and  _264
REMARK  109  A    between atoms: _266  and  _268
REMARK  110  A    between atoms: _268  and  _269
REMARK  111  A    between atoms: _272  and  _274
REMARK  112  A    between atoms: _274  and  _275
REMARK  113  A    between atoms: _274  and  _277
REMARK  114  A    between atoms: _277  and  _278
REMARK  115  A    between atoms: _281  and  _283
REMARK  116  A    between atoms: _283  and  _284
REMARK  117  A    between atoms: _283  and  _286
REMARK  118  A    between atoms: _286  and  _287
REMARK  119  A    between atoms: _290  and  _292
REMARK  120  A    between atoms: _292  and  _293
REMARK  121  A    between atoms: _292  and  _295
REMARK  122  A    between atoms: _295  and  _296
REMARK  123  A    between atoms: _302  and  _304
REMARK  124  A    between atoms: _304  and  _305
REMARK  125  A    between atoms: _308  and  _310
REMARK  126  A    between atoms: _310  and  _311
REMARK  127  A    between atoms: _310  and  _313
REMARK  128  A    between atoms: _313  and  _314
REMARK  129  A    between atoms: _317  and  _319
REMARK  130  A    between atoms: _319  and  _320
REMARK  131  A    between atoms: _319  and  _322
REMARK  132  A    between atoms: _322  and  _323
REMARK  133  A    between atoms: _323  and  _324
REMARK  134  A    between atoms: _324  and  _325
REMARK  135  A    between atoms: _334  and  _336
REMARK  136  A    between atoms: _336  and  _337
REMARK  137  A    between atoms: _336  and  _339
REMARK  138  A    between atoms: _339  and  _340
REMARK  139  A    between atoms: _343  and  _345
REMARK  140  A    between atoms: _345  and  _346
REMARK  141  A    between atoms: _345  and  _348
REMARK  142  A    between atoms: _348  and  _349
REMARK  143  A    between atoms: _349  and  _350
REMARK  144  A    between atoms: _350  and  _351
REMARK  145  A    between atoms: _360  and  _362
REMARK  146  A    between atoms: _362  and  _363
REMARK  147  A    between atoms: _362  and  _365
REMARK  148  A    between atoms: _365  and  _366
REMARK  149  A    between atoms: _371  and  _372
REMARK  150  A    between atoms: _374  and  _376
REMARK  151  A    between atoms: _376  and  _377
REMARK  152  A    between atoms: _376  and  _379
REMARK  153  A    between atoms: _382  and  _384
REMARK  154  A    between atoms: _384  and  _385
REMARK  155  A    between atoms: _388  and  _390
REMARK  156  A    between atoms: _390  and  _391
REMARK  157  A    between atoms: _390  and  _393
REMARK  158  A    between atoms: _393  and  _394
REMARK  159  A    between atoms: _396  and  _398
REMARK  160  A    between atoms: _398  and  _399
REMARK  161  A    between atoms: _398  and  _401
REMARK  162  A    between atoms: _401  and  _402
REMARK  163  A    between atoms: _407  and  _409
REMARK  164  A    between atoms: _409  and  _410
REMARK  165  A    between atoms: _413  and  _415
REMARK  166  A    between atoms: _415  and  _416
REMARK  167  A    between atoms: _419  and  _421
REMARK  168  A    between atoms: _421  and  _422
REMARK  169  A    between atoms: _421  and  _424
REMARK  170  A    between atoms: _424  and  _425
REMARK  171  A    between atoms: _430  and  _431
REMARK  172  A    between atoms: _433  and  _435
REMARK  173  A    between atoms: _435  and  _436
REMARK  174  A    between atoms: _435  and  _438
REMARK  175  A    between atoms: _438  and  _439
REMARK  176  A    between atoms: _441  and  _443
REMARK  177  A    between atoms: _443  and  _444
REMARK  178  A    between atoms: _447  and  _449
REMARK  179  A    between atoms: _449  and  _450
REMARK  180  A    between atoms: _449  and  _452
REMARK  181  A    between atoms: _452  and  _453
REMARK  182  A    between atoms: _453  and  _454
REMARK  183  A    between atoms: _454  and  _455
REMARK  184  A    between atoms: _464  and  _466
REMARK  185  A    between atoms: _466  and  _467
REMARK  186  A    between atoms: _466  and  _469
REMARK  187  A    between atoms: _472  and  _474
REMARK  188  A    between atoms: _474  and  _475
REMARK  189  A    between atoms: _474  and  _477
REMARK  190  A    between atoms: _477  and  _478
REMARK  191  A    between atoms: _478  and  _479
REMARK  192  A    between atoms: _482  and  _484
REMARK  193  A    between atoms: _484  and  _485
REMARK  194  A    between atoms: _484  and  _487
REMARK  195  A    between atoms: _487  and  _488
REMARK  196  A    between atoms: _490  and  _492
REMARK  197  A    between atoms: _492  and  _493
REMARK  198  A    between atoms: _492  and  _495
REMARK  199  A    between atoms: _495  and  _496
REMARK  200  A    between atoms: _496  and  _497
REMARK  201  A    between atoms: _497  and  _498
REMARK  202  A    between atoms: _507  and  _509
REMARK  203  A    between atoms: _509  and  _510
REMARK  204  A    between atoms: _513  and  _515
REMARK  205  A    between atoms: _515  and  _516
REMARK  206  A    between atoms: _515  and  _518
REMARK  207  A    between atoms: _518  and  _519
REMARK  208  A    between atoms: _519  and  _520
REMARK  209  A    between atoms: _520  and  _521
REMARK  210  A    between atoms: _530  and  _532
REMARK  211  A    between atoms: _532  and  _533
REMARK  212  A    between atoms: _532  and  _535
REMARK  213  A    between atoms: _535  and  _536
REMARK  214  A    between atoms: _539  and  _541
REMARK  215  A    between atoms: _541  and  _542
REMARK  216  A    between atoms: _544  and  _546
REMARK  217  A    between atoms: _546  and  _547
REMARK  218  A    between atoms: _546  and  _549
REMARK  219  A    between atoms: _549  and  _550
REMARK  220  A    between atoms: _550  and  _551
REMARK  221  A    between atoms: _551  and  _552
REMARK  222  A    between atoms: _561  and  _563
REMARK  223  A    between atoms: _563  and  _564
REMARK  224  A    between atoms: _567  and  _569
REMARK  225  A    between atoms: _569  and  _570
REMARK  226  A    between atoms: _569  and  _572
REMARK  227  A    between atoms: _572  and  _573
REMARK  228  A    between atoms: _573  and  _574
REMARK  229  A    between atoms: _574  and  _575
REMARK  230  A    between atoms: _584  and  _586
REMARK  231  A    between atoms: _586  and  _587
REMARK  232  A    between atoms: _586  and  _589
REMARK  233  A    between atoms: _589  and  _590
REMARK  234  A    between atoms: _593  and  _595
REMARK  235  A    between atoms: _595  and  _596
REMARK  236  A    between atoms: _595  and  _598
REMARK  237  A    between atoms: _598  and  _599
REMARK  238  A    between atoms: _604  and  _606
REMARK  239  A    between atoms: _606  and  _607
REMARK  240  A    between atoms: _606  and  _609
REMARK  241  A    between atoms: _609  and  _610
REMARK  242  A    between atoms: _615  and  _616
REMARK  243  A    between atoms: _618  and  _620
REMARK  244  A    between atoms: _620  and  _621
REMARK  245  A    between atoms: _620  and  _623
REMARK  246  A    between atoms: _623  and  _624
REMARK  247  A    between atoms: _624  and  _625
REMARK  248  A    between atoms: _625  and  _627
REMARK  249  A    between atoms: _627  and  MG_715
REMARK  250  A    between atoms: _628  and  _630
REMARK  251  A    between atoms: _630  and  _631
REMARK  252  A    between atoms: _630  and  _633
REMARK  253  A    between atoms: _633  and  _634
REMARK  254  A    between atoms: _634  and  _635
REMARK  255  A    between atoms: _635  and  _636
REMARK  256  A    between atoms: _645  and  _647
REMARK  257  A    between atoms: _647  and  _648
REMARK  258  A    between atoms: _647  and  _650
REMARK  259  A    between atoms: _650  and  _651
REMARK  260  A    between atoms: _654  and  _656
REMARK  261  A    between atoms: _656  and  _657
REMARK  262  A    between atoms: _656  and  _659
REMARK  263  A    between atoms: _659  and  _660
REMARK  264  A    between atoms: _663  and  _665
REMARK  265  A    between atoms: _665  and  _666
REMARK  266  A    between atoms: _665  and  _668
REMARK  267  A    between atoms: _668  and  _669
REMARK  268  A    between atoms: _669  and  _670
REMARK  269  A    between atoms: _675  and  _677
REMARK  270  A    between atoms: _677  and  _678
REMARK  271  A    between atoms: _677  and  _680
REMARK  272  A    between atoms: _680  and  _681
REMARK  273  A    between atoms: _684  and  _686
REMARK  274  A    between atoms: _686  and  _687
REMARK  275  A    between atoms: _686  and  _689
REMARK  276  A    between atoms: _689  and  _690
REMARK  277  A    between atoms: _695  and  _696
REMARK  278  A    between atoms: _698  and  _700
REMARK  279  A    between atoms: _700  and  _701
REMARK  280  A    between atoms: _700  and  _703
REMARK  281  A    between atoms: _703  and  _704
REMARK  282  A    between atoms: _704  and  _705
REMARK  283  A    between atoms: _705  and  _706
REMARK                            x       y       z     vdW  Elec       q    Type
REMARK                         _______ _______ _______ _____ _____    ______ ____
ROOT
ATOM      1  CG  TYR A   1      21.754  10.940  19.450  0.00  0.00    -0.020 A 
ATOM      2  CD2 TYR A   1      22.964  10.252  19.426  0.00  0.00    -0.001 A 
ATOM      3  CE2 TYR A   1      23.785  10.276  18.299  0.00  0.00    +0.036 A 
ATOM      4  CZ  TYR A   1      23.397  10.994  17.177  0.00  0.00    +0.134 A 
ATOM      5  CE1 TYR A   1      22.195  11.683  17.172  0.00  0.00    +0.036 A 
ATOM      6  CD1 TYR A   1      21.380  11.652  18.309  0.00  0.00    -0.001 A 
ENDROOT
BRANCH   4   7
ATOM      7  OH  TYR A   1      24.218  11.038  16.078  0.00  0.00    -0.506 OA
ATOM      8  HH  TYR A   1      25.028  10.495  16.250  0.00  0.00    +0.292 HD
ENDBRANCH   4   7
BRANCH   1   9
ATOM      9  CB  TYR A   1      20.893  10.956  20.695  0.00  0.00    +0.051 C 
BRANCH   9  10
ATOM     10  CA  TYR A   1      20.540   9.574  21.249  0.00  0.00    +0.137 C 
BRANCH  10  11
ATOM     11  N   TYR A   1      19.179   9.183  20.885  0.00  0.00    -0.239 NA
ATOM     12  H   TYR A   1      18.585   9.828  20.325  0.00  0.00    +0.142 HD
ENDBRANCH  10  11
BRANCH  10  13
ATOM     13  C   TYR A   1      20.620   9.619  22.758  0.00  0.00    +0.224 C 
ATOM     14  O   TYR A   1      21.623   9.210  23.355  0.00  0.00    -0.287 OA
ENDBRANCH  10  13
ENDBRANCH   9  10
ENDBRANCH   1   9
TORSDOF 5
REMARK  Name = ../refined-set-2016/1mrn/1mrn_pocket.pdb
REMARK  283 active torsions:
REMARK  status: ('A' for Active; 'I' for Inactive)
REMARK    1  A    between atoms: _1  and  _3
REMARK    2  A    between atoms: _3  and  _4
REMARK    3  A    between atoms: _3  and  _6
REMARK    4  A    between atoms: _6  and  _7
REMARK    5  A    between atoms: _7  and  _8
REMARK    6  A    between atoms: _11  and  _13
REMARK    7  A    between atoms: _13  and  _14
REMARK    8  A    between atoms: _16  and  _18
REMARK    9  A    between atoms: _18  and  _19
REMARK   10  A    between atoms: _18  and  _21
REMARK   11  A    between atoms: _24  and  _26
REMARK   12  A    between atoms: _26  and  _27
REMARK   13  A    between atoms: _26  and  _29
REMARK   14  A    between atoms: _29  and  _30
REMARK   15  A    between atoms: _30  and  _31
REMARK   16  A    between atoms: _31  and  MG_715
REMARK   17  A    between atoms: _33  and  _35
REMARK   18  A    between atoms: _35  and  _36
REMARK   19  A    between atoms: _38  and  _40
REMARK   20  A    between atoms: _40  and  _41
REMARK   21  A    between atoms: _44  and  _46
REMARK   22  A    between atoms: _46  and  _47
REMARK   23  A    between atoms: _46  and  _49
REMARK   24  A    between atoms: _49  and  _50
REMARK   25  A    between atoms: _50  and  _51
REMARK   26  A    between atoms: _51  and  _52
REMARK   27  A    between atoms: _52  and  _53
REMARK   28  A    between atoms: _57  and  _59
REMARK   29  A    between atoms: _59  and  _60
REMARK   30  A    between atoms: _59  and  _62
REMARK   31  A    between atoms: _62  and  _63
REMARK   32  A    between atoms: _63  and  _64
REMARK   33  A    between atoms: _64  and  _65
REMARK   34  A    between atoms: _74  and  _76
REMARK   35  A    between atoms: _76  and  _77
REMARK   36  A    between atoms: _80  and  _82
REMARK   37  A    between atoms: _82  and  _83
REMARK   38  A    between atoms: _82  and  _85
REMARK   39  A    between atoms: _85  and  _86
REMARK   40  A    between atoms: _93  and  _94
REMARK   41  A    between atoms: _99  and  _101
REMARK   42  A    between atoms: _101  and  _102
REMARK   43  A    between atoms: _101  and  _104
REMARK   44  A    between atoms: _104  and  _105
REMARK   45  A    between atoms: _105  and  _106
REMARK   46  A    between atoms: _106  and  _107
REMARK   47  A    between atoms: _116  and  _118
REMARK   48  A    between atoms: _118  and  _119
REMARK   49  A    between atoms: _118  and  _121
REMARK   50  A    between atoms: _121  and  _122
REMARK   51  A    between atoms: _127  and  _128
REMARK   52  A    between atoms: _130  and  _132
REMARK   53  A    between atoms: _132  and  _133
REMARK   54  A    between atoms: _135  and  _137
REMARK   55  A    between atoms: _137  and  _138
REMARK   56  A    between atoms: _137  and  _140
REMARK   57  A    between atoms: _140  and  _141
REMARK   58  A    between atoms: _143  and  _145
REMARK   59  A    between atoms: _145  and  _146
REMARK   60  A    between atoms: _145  and  _148
REMARK   61  A    between atoms: _151  and  _153
REMARK   62  A    between atoms: _153  and  _154
REMARK   63  A    between atoms: _157  and  _159
REMARK   64  A    between atoms: _159  and  _160
REMARK   65  A    between atoms: _159  and  _162
REMARK   66  A    between atoms: _162  and  _163
REMARK   67  A    between atoms: _166  and  _168
REMARK   68  A    between atoms: _168  and  _169
REMARK   69  A    between atoms: _168  and  _171
REMARK   70  A    between atoms: _171  and  _172
REMARK   71  A    between atoms: _175  and  _177
REMARK   72  A    between atoms: _177  and  _178
REMARK   73  A    between atoms: _181  and  _183
REMARK   74  A    between atoms: _183  and  _184
REMARK   75  A    between atoms: _187  and  _189
REMARK   76  A    between atoms: _189  and  _190
REMARK   77  A    between atoms: _189  and  _192
REMARK   78  A    between atoms: _192  and  _193
REMARK   79  A    between atoms: _193  and  _194
REMARK   80  A    between atoms: _197  and  _199
REMARK   81  A    between atoms: _199  and  _200
REMARK   82  A    between atoms: _203  and  _205
REMARK   83  A    between atoms: _205  and  _206
REMARK   84  A    between atoms: _205  and  _208
REMARK   85  A    between atoms: _208  and  _209
REMARK   86  A    between atoms: _212  and  _214
REMARK   87  A    between atoms: _214  and  _215
REMARK   88  A    between atoms: _214  and  _217
REMARK   89  A    between atoms: _217  and  _218
REMARK   90  A    between atoms: _223  and  _225
REMARK   91  A    between atoms: _225  and  _226
REMARK   92  A    between atoms: _228  and  _230
REMARK   93  A    between atoms: _230  and  _231
REMARK   94  A    between atoms: _230  and  _233
REMARK   95  A    between atoms: _233  and  _234
REMARK   96  A    between atoms: _234  and  _235
REMARK   97  A    between atoms: _238  and  _240
REMARK   98  A    between atoms: _240  and  _241
REMARK   99  A    between atoms: _240  and  _243
REMARK  100  A    between atoms: _243  and  _244
REMARK  101  A    between atoms: _249  and  _251
REMARK  102  A    between atoms: _251  and  _252
REMARK  103  A    between atoms: _251  and  _254
REMARK  104  A    between atoms: _257  and  _259
REMARK  105  A    between atoms: _259  and  _260
REMARK  106  A    between atoms: _259  and  _262
REMARK  107  A    between atoms: _262  and  _263
REMARK  108  A    between atoms: _263  and  _264
REMARK  109  A    between atoms: _266  and  _268
REMARK  110  A    between atoms: _268  and  _269
REMARK  111  A    between atoms: _272  and  _274
REMARK  112  A    between atoms: _274  and  _275
REMARK  113  A    between atoms: _274  and  _277
REMARK  114  A    between atoms: _277  and  _278
REMARK  115  A    between atoms: _281  and  _283
REMARK  116  A    between atoms: _283  and  _284
REMARK  117  A    between atoms: _283  and  _286
REMARK  118  A    between atoms: _286  and  _287
REMARK  119  A    between atoms: _290  and  _292
REMARK  120  A    between atoms: _292  and  _293
REMARK  121  A    between atoms: _292  and  _295
REMARK  122  A    between atoms: _295  and  _296
REMARK  123  A    between atoms: _302  and  _304
REMARK  124  A    between atoms: _304  and  _305
REMARK  125  A    between atoms: _308  and  _310
REMARK  126  A    between atoms: _310  and  _311
REMARK  127  A    between atoms: _310  and  _313
REMARK  128  A    between atoms: _313  and  _314
REMARK  129  A    between atoms: _317  and  _319
REMARK  130  A    between atoms: _319  and  _320
REMARK  131  A    between atoms: _319  and  _322
REMARK  132  A    between atoms: _322  and  _323
REMARK  133  A    between atoms: _323  and  _324
REMARK  134  A    between atoms: _324  and  _325
REMARK  135  A    between atoms: _334  and  _336
REMARK  136  A    between atoms: _336  and  _337
REMARK  137  A    between atoms: _336  and  _339
REMARK  138  A    between atoms: _339  and  _340
REMARK  139  A    between atoms: _343  and  _345
REMARK  140  A    between atoms: _345  and  _346
REMARK  141  A    between atoms: _345  and  _348
REMARK  142  A    between atoms: _348  and  _349
REMARK  143  A    between atoms: _349  and  _350
REMARK  144  A    between atoms: _350  and  _351
REMARK  145  A    between atoms: _360  and  _362
REMARK  146  A    between atoms: _362  and  _363
REMARK  147  A    between atoms: _362  and  _365
REMARK  148  A    between atoms: _365  and  _366
REMARK  149  A    between atoms: _371  and  _372
REMARK  150  A    between atoms: _374  and  _376
REMARK  151  A    between atoms: _376  and  _377
REMARK  152  A    between atoms: _376  and  _379
REMARK  153  A    between atoms: _382  and  _384
REMARK  154  A    between atoms: _384  and  _385
REMARK  155  A    between atoms: _388  and  _390
REMARK  156  A    between atoms: _390  and  _391
REMARK  157  A    between atoms: _390  and  _393
REMARK  158  A    between atoms: _393  and  _394
REMARK  159  A    between atoms: _396  and  _398
REMARK  160  A    between atoms: _398  and  _399
REMARK  161  A    between atoms: _398  and  _401
REMARK  162  A    between atoms: _401  and  _402
REMARK  163  A    between atoms: _407  and  _409
REMARK  164  A    between atoms: _409  and  _410
REMARK  165  A    between atoms: _413  and  _415
REMARK  166  A    between atoms: _415  and  _416
REMARK  167  A    between atoms: _419  and  _421
REMARK  168  A    between atoms: _421  and  _422
REMARK  169  A    between atoms: _421  and  _424
REMARK  170  A    between atoms: _424  and  _425
REMARK  171  A    between atoms: _430  and  _431
REMARK  172  A    between atoms: _433  and  _435
REMARK  173  A    between atoms: _435  and  _436
REMARK  174  A    between atoms: _435  and  _438
REMARK  175  A    between atoms: _438  and  _439
REMARK  176  A    between atoms: _441  and  _443
REMARK  177  A    between atoms: _443  and  _444
REMARK  178  A    between atoms: _447  and  _449
REMARK  179  A    between atoms: _449  and  _450
REMARK  180  A    between atoms: _449  and  _452
REMARK  181  A    between atoms: _452  and  _453
REMARK  182  A    between atoms: _453  and  _454
REMARK  183  A    between atoms: _454  and  _455
REMARK  184  A    between atoms: _464  and  _466
REMARK  185  A    between atoms: _466  and  _467
REMARK  186  A    between atoms: _466  and  _469
REMARK  187  A    between atoms: _472  and  _474
REMARK  188  A    between atoms: _474  and  _475
REMARK  189  A    between atoms: _474  and  _477
REMARK  190  A    between atoms: _477  and  _478
REMARK  191  A    between atoms: _478  and  _479
REMARK  192  A    between atoms: _482  and  _484
REMARK  193  A    between atoms: _484  and  _485
REMARK  194  A    between atoms: _484  and  _487
REMARK  195  A    between atoms: _487  and  _488
REMARK  196  A    between atoms: _490  and  _492
REMARK  197  A    between atoms: _492  and  _493
REMARK  198  A    between atoms: _492  and  _495
REMARK  199  A    between atoms: _495  and  _496
REMARK  200  A    between atoms: _496  and  _497
REMARK  201  A    between atoms: _497  and  _498
REMARK  202  A    between atoms: _507  and  _509
REMARK  203  A    between atoms: _509  and  _510
REMARK  204  A    between atoms: _513  and  _515
REMARK  205  A    between atoms: _515  and  _516
REMARK  206  A    between atoms: _515  and  _518
REMARK  207  A    between atoms: _518  and  _519
REMARK  208  A    between atoms: _519  and  _520
REMARK  209  A    between atoms: _520  and  _521
REMARK  210  A    between atoms: _530  and  _532
REMARK  211  A    between atoms: _532  and  _533
REMARK  212  A    between atoms: _532  and  _535
REMARK  213  A    between atoms: _535  and  _536
REMARK  214  A    between atoms: _539  and  _541
REMARK  215  A    between atoms: _541  and  _542
REMARK  216  A    between atoms: _544  and  _546
REMARK  217  A    between atoms: _546  and  _547
REMARK  218  A    between atoms: _546  and  _549
REMARK  219  A    between atoms: _549  and  _550
REMARK  220  A    between atoms: _550  and  _551
REMARK  221  A    between atoms: _551  and  _552
REMARK  222  A    between atoms: _561  and  _563
REMARK  223  A    between atoms: _563  and  _564
REMARK  224  A    between atoms: _567  and  _569
REMARK  225  A    between atoms: _569  and  _570
REMARK  226  A    between atoms: _569  and  _572
REMARK  227  A    between atoms: _572  and  _573
REMARK  228  A    between atoms: _573  and  _574
REMARK  229  A    between atoms: _574  and  _575
REMARK  230  A    between atoms: _584  and  _586
REMARK  231  A    between atoms: _586  and  _587
REMARK  232  A    between atoms: _586  and  _589
REMARK  233  A    between atoms: _589  and  _590
REMARK  234  A    between atoms: _593  and  _595
REMARK  235  A    between atoms: _595  and  _596
REMARK  236  A    between atoms: _595  and  _598
REMARK  237  A    between atoms: _598  and  _599
REMARK  238  A    between atoms: _604  and  _606
REMARK  239  A    between atoms: _606  and  _607
REMARK  240  A    between atoms: _606  and  _609
REMARK  241  A    between atoms: _609  and  _610
REMARK  242  A    between atoms: _615  and  _616
REMARK  243  A    between atoms: _618  and  _620
REMARK  244  A    between atoms: _620  and  _621
REMARK  245  A    between atoms: _620  and  _623
REMARK  246  A    between atoms: _623  and  _624
REMARK  247  A    between atoms: _624  and  _625
REMARK  248  A    between atoms: _625  and  _627
REMARK  249  A    between atoms: _627  and  MG_715
REMARK  250  A    between atoms: _628  and  _630
REMARK  251  A    between atoms: _630  and  _631
REMARK  252  A    between atoms: _630  and  _633
REMARK  253  A    between atoms: _633  and  _634
REMARK  254  A    between atoms: _634  and  _635
REMARK  255  A    between atoms: _635  and  _636
REMARK  256  A    between atoms: _645  and  _647
REMARK  257  A    between atoms: _647  and  _648
REMARK  258  A    between atoms: _647  and  _650
REMARK  259  A    between atoms: _650  and  _651
REMARK  260  A    between atoms: _654  and  _656
REMARK  261  A    between atoms: _656  and  _657
REMARK  262  A    between atoms: _656  and  _659
REMARK  263  A    between atoms: _659  and  _660
REMARK  264  A    between atoms: _663  and  _665
REMARK  265  A    between atoms: _665  and  _666
REMARK  266  A    between atoms: _665  and  _668
REMARK  267  A    between atoms: _668  and  _669
REMARK  268  A    between atoms: _669  and  _670
REMARK  269  A    between atoms: _675  and  _677
REMARK  270  A    between atoms: _677  and  _678
REMARK  271  A    between atoms: _677  and  _680
REMARK  272  A    between atoms: _680  and  _681
REMARK  273  A    between atoms: _684  and  _686
REMARK  274  A    between atoms: _686  and  _687
REMARK  275  A    between atoms: _686  and  _689
REMARK  276  A    between atoms: _689  and  _690
REMARK  277  A    between atoms: _695  and  _696
REMARK  278  A    between atoms: _698  and  _700
REMARK  279  A    between atoms: _700  and  _701
REMARK  280  A    between atoms: _700  and  _703
REMARK  281  A    between atoms: _703  and  _704
REMARK  282  A    between atoms: _704  and  _705
REMARK  283  A    between atoms: _705  and  _706
REMARK                            x       y       z     vdW  Elec       q    Type
REMARK                         _______ _______ _______ _____ _____    ______ ____
ROOT
ATOM      1  NE  ARG A   1      30.077   8.839  -7.839  0.00  0.00    -0.265 N 
ATOM      2  CZ  ARG A   1      29.093   9.390  -7.130  0.00  0.00    +0.342 C 
ATOM      3  NH2 ARG A   1      29.338   9.942  -5.949  0.00  0.00    -0.292 N 
ATOM      4 HH21 ARG A   1      28.562  10.369  -5.404  0.00  0.00    +0.255 HD
ATOM      5 HH22 ARG A   1      30.306   9.947  -5.568  0.00  0.00    +0.255 HD
ATOM      6  NH1 ARG A   1      27.858   9.386  -7.601  0.00  0.00    -0.292 N 
ATOM      7 HH11 ARG A   1      27.089   9.816  -7.048  0.00  0.00    +0.255 HD
ATOM      8 HH12 ARG A   1      27.655   8.953  -8.524  0.00  0.00    +0.255 HD
ATOM      9  HE  ARG A   1      31.036   8.864  -7.439  0.00  0.00    +0.259 HD
ENDROOT
BRANCH   1  10
ATOM     10  CD  ARG A   1      29.898   8.202  -9.142  0.00  0.00    +0.174 C 
BRANCH  10  11
ATOM     11  CG  ARG A   1      31.226   7.953  -9.864  0.00  0.00    +0.045 C 
BRANCH  11  12
ATOM     12  CB  ARG A   1      30.996   7.451 -11.288  0.00  0.00    +0.029 C 
BRANCH  12  13
ATOM     13  CA  ARG A   1      32.266   7.305 -12.136  0.00  0.00    +0.133 C 
BRANCH  13  14
ATOM     14  N   ARG A   1      31.898   6.863 -13.487  0.00  0.00    -0.239 NA
ATOM     15  H   ARG A   1      30.971   6.416 -13.634  0.00  0.00    +0.142 HD
ENDBRANCH  13  14
BRANCH  13  16
ATOM     16  C   ARG A   1      33.305   6.485 -11.364  0.00  0.00    +0.224 C 
ATOM     17  O   ARG A   1      34.273   7.045 -10.836  0.00  0.00    -0.287 OA
ENDBRANCH  13  16
ENDBRANCH  12  13
ENDBRANCH  11  12
ENDBRANCH  10  11
ENDBRANCH   1  10
TORSDOF 6
REMARK  Name = ../refined-set-2016/1mrn/1mrn_pocket.pdb
REMARK  283 active torsions:
REMARK  status: ('A' for Active; 'I' for Inactive)
REMARK    1  A    between atoms: _1  and  _3
REMARK    2  A    between atoms: _3  and  _4
REMARK    3  A    between atoms: _3  and  _6
REMARK    4  A    between atoms: _6  and  _7
REMARK    5  A    between atoms: _7  and  _8
REMARK    6  A    between atoms: _11  and  _13
REMARK    7  A    between atoms: _13  and  _14
REMARK    8  A    between atoms: _16  and  _18
REMARK    9  A    between atoms: _18  and  _19
REMARK   10  A    between atoms: _18  and  _21
REMARK   11  A    between atoms: _24  and  _26
REMARK   12  A    between atoms: _26  and  _27
REMARK   13  A    between atoms: _26  and  _29
REMARK   14  A    between atoms: _29  and  _30
REMARK   15  A    between atoms: _30  and  _31
REMARK   16  A    between atoms: _31  and  MG_715
REMARK   17  A    between atoms: _33  and  _35
REMARK   18  A    between atoms: _35  and  _36
REMARK   19  A    between atoms: _38  and  _40
REMARK   20  A    between atoms: _40  and  _41
REMARK   21  A    between atoms: _44  and  _46
REMARK   22  A    between atoms: _46  and  _47
REMARK   23  A    between atoms: _46  and  _49
REMARK   24  A    between atoms: _49  and  _50
REMARK   25  A    between atoms: _50  and  _51
REMARK   26  A    between atoms: _51  and  _52
REMARK   27  A    between atoms: _52  and  _53
REMARK   28  A    between atoms: _57  and  _59
REMARK   29  A    between atoms: _59  and  _60
REMARK   30  A    between atoms: _59  and  _62
REMARK   31  A    between atoms: _62  and  _63
REMARK   32  A    between atoms: _63  and  _64
REMARK   33  A    between atoms: _64  and  _65
REMARK   34  A    between atoms: _74  and  _76
REMARK   35  A    between atoms: _76  and  _77
REMARK   36  A    between atoms: _80  and  _82
REMARK   37  A    between atoms: _82  and  _83
REMARK   38  A    between atoms: _82  and  _85
REMARK   39  A    between atoms: _85  and  _86
REMARK   40  A    between atoms: _93  and  _94
REMARK   41  A    between atoms: _99  and  _101
REMARK   42  A    between atoms: _101  and  _102
REMARK   43  A    between atoms: _101  and  _104
REMARK   44  A    between atoms: _104  and  _105
REMARK   45  A    between atoms: _105  and  _106
REMARK   46  A    between atoms: _106  and  _107
REMARK   47  A    between atoms: _116  and  _118
REMARK   48  A    between atoms: _118  and  _119
REMARK   49  A    between atoms: _118  and  _121
REMARK   50  A    between atoms: _121  and  _122
REMARK   51  A    between atoms: _127  and  _128
REMARK   52  A    between atoms: _130  and  _132
REMARK   53  A    between atoms: _132  and  _133
REMARK   54  A    between atoms: _135  and  _137
REMARK   55  A    between atoms: _137  and  _138
REMARK   56  A    between atoms: _137  and  _140
REMARK   57  A    between atoms: _140  and  _141
REMARK   58  A    between atoms: _143  and  _145
REMARK   59  A    between atoms: _145  and  _146
REMARK   60  A    between atoms: _145  and  _148
REMARK   61  A    between atoms: _151  and  _153
REMARK   62  A    between atoms: _153  and  _154
REMARK   63  A    between atoms: _157  and  _159
REMARK   64  A    between atoms: _159  and  _160
REMARK   65  A    between atoms: _159  and  _162
REMARK   66  A    between atoms: _162  and  _163
REMARK   67  A    between atoms: _166  and  _168
REMARK   68  A    between atoms: _168  and  _169
REMARK   69  A    between atoms: _168  and  _171
REMARK   70  A    between atoms: _171  and  _172
REMARK   71  A    between atoms: _175  and  _177
REMARK   72  A    between atoms: _177  and  _178
REMARK   73  A    between atoms: _181  and  _183
REMARK   74  A    between atoms: _183  and  _184
REMARK   75  A    between atoms: _187  and  _189
REMARK   76  A    between atoms: _189  and  _190
REMARK   77  A    between atoms: _189  and  _192
REMARK   78  A    between atoms: _192  and  _193
REMARK   79  A    between atoms: _193  and  _194
REMARK   80  A    between atoms: _197  and  _199
REMARK   81  A    between atoms: _199  and  _200
REMARK   82  A    between atoms: _203  and  _205
REMARK   83  A    between atoms: _205  and  _206
REMARK   84  A    between atoms: _205  and  _208
REMARK   85  A    between atoms: _208  and  _209
REMARK   86  A    between atoms: _212  and  _214
REMARK   87  A    between atoms: _214  and  _215
REMARK   88  A    between atoms: _214  and  _217
REMARK   89  A    between atoms: _217  and  _218
REMARK   90  A    between atoms: _223  and  _225
REMARK   91  A    between atoms: _225  and  _226
REMARK   92  A    between atoms: _228  and  _230
REMARK   93  A    between atoms: _230  and  _231
REMARK   94  A    between atoms: _230  and  _233
REMARK   95  A    between atoms: _233  and  _234
REMARK   96  A    between atoms: _234  and  _235
REMARK   97  A    between atoms: _238  and  _240
REMARK   98  A    between atoms: _240  and  _241
REMARK   99  A    between atoms: _240  and  _243
REMARK  100  A    between atoms: _243  and  _244
REMARK  101  A    between atoms: _249  and  _251
REMARK  102  A    between atoms: _251  and  _252
REMARK  103  A    between atoms: _251  and  _254
REMARK  104  A    between atoms: _257  and  _259
REMARK  105  A    between atoms: _259  and  _260
REMARK  106  A    between atoms: _259  and  _262
REMARK  107  A    between atoms: _262  and  _263
REMARK  108  A    between atoms: _263  and  _264
REMARK  109  A    between atoms: _266  and  _268
REMARK  110  A    between atoms: _268  and  _269
REMARK  111  A    between atoms: _272  and  _274
REMARK  112  A    between atoms: _274  and  _275
REMARK  113  A    between atoms: _274  and  _277
REMARK  114  A    between atoms: _277  and  _278
REMARK  115  A    between atoms: _281  and  _283
REMARK  116  A    between atoms: _283  and  _284
REMARK  117  A    between atoms: _283  and  _286
REMARK  118  A    between atoms: _286  and  _287
REMARK  119  A    between atoms: _290  and  _292
REMARK  120  A    between atoms: _292  and  _293
REMARK  121  A    between atoms: _292  and  _295
REMARK  122  A    between atoms: _295  and  _296
REMARK  123  A    between atoms: _302  and  _304
REMARK  124  A    between atoms: _304  and  _305
REMARK  125  A    between atoms: _308  and  _310
REMARK  126  A    between atoms: _310  and  _311
REMARK  127  A    between atoms: _310  and  _313
REMARK  128  A    between atoms: _313  and  _314
REMARK  129  A    between atoms: _317  and  _319
REMARK  130  A    between atoms: _319  and  _320
REMARK  131  A    between atoms: _319  and  _322
REMARK  132  A    between atoms: _322  and  _323
REMARK  133  A    between atoms: _323  and  _324
REMARK  134  A    between atoms: _324  and  _325
REMARK  135  A    between atoms: _334  and  _336
REMARK  136  A    between atoms: _336  and  _337
REMARK  137  A    between atoms: _336  and  _339
REMARK  138  A    between atoms: _339  and  _340
REMARK  139  A    between atoms: _343  and  _345
REMARK  140  A    between atoms: _345  and  _346
REMARK  141  A    between atoms: _345  and  _348
REMARK  142  A    between atoms: _348  and  _349
REMARK  143  A    between atoms: _349  and  _350
REMARK  144  A    between atoms: _350  and  _351
REMARK  145  A    between atoms: _360  and  _362
REMARK  146  A    between atoms: _362  and  _363
REMARK  147  A    between atoms: _362  and  _365
REMARK  148  A    between atoms: _365  and  _366
REMARK  149  A    between atoms: _371  and  _372
REMARK  150  A    between atoms: _374  and  _376
REMARK  151  A    between atoms: _376  and  _377
REMARK  152  A    between atoms: _376  and  _379
REMARK  153  A    between atoms: _382  and  _384
REMARK  154  A    between atoms: _384  and  _385
REMARK  155  A    between atoms: _388  and  _390
REMARK  156  A    between atoms: _390  and  _391
REMARK  157  A    between atoms: _390  and  _393
REMARK  158  A    between atoms: _393  and  _394
REMARK  159  A    between atoms: _396  and  _398
REMARK  160  A    between atoms: _398  and  _399
REMARK  161  A    between atoms: _398  and  _401
REMARK  162  A    between atoms: _401  and  _402
REMARK  163  A    between atoms: _407  and  _409
REMARK  164  A    between atoms: _409  and  _410
REMARK  165  A    between atoms: _413  and  _415
REMARK  166  A    between atoms: _415  and  _416
REMARK  167  A    between atoms: _419  and  _421
REMARK  168  A    between atoms: _421  and  _422
REMARK  169  A    between atoms: _421  and  _424
REMARK  170  A    between atoms: _424  and  _425
REMARK  171  A    between atoms: _430  and  _431
REMARK  172  A    between atoms: _433  and  _435
REMARK  173  A    between atoms: _435  and  _436
REMARK  174  A    between atoms: _435  and  _438
REMARK  175  A    between atoms: _438  and  _439
REMARK  176  A    between atoms: _441  and  _443
REMARK  177  A    between atoms: _443  and  _444
REMARK  178  A    between atoms: _447  and  _449
REMARK  179  A    between atoms: _449  and  _450
REMARK  180  A    between atoms: _449  and  _452
REMARK  181  A    between atoms: _452  and  _453
REMARK  182  A    between atoms: _453  and  _454
REMARK  183  A    between atoms: _454  and  _455
REMARK  184  A    between atoms: _464  and  _466
REMARK  185  A    between atoms: _466  and  _467
REMARK  186  A    between atoms: _466  and  _469
REMARK  187  A    between atoms: _472  and  _474
REMARK  188  A    between atoms: _474  and  _475
REMARK  189  A    between atoms: _474  and  _477
REMARK  190  A    between atoms: _477  and  _478
REMARK  191  A    between atoms: _478  and  _479
REMARK  192  A    between atoms: _482  and  _484
REMARK  193  A    between atoms: _484  and  _485
REMARK  194  A    between atoms: _484  and  _487
REMARK  195  A    between atoms: _487  and  _488
REMARK  196  A    between atoms: _490  and  _492
REMARK  197  A    between atoms: _492  and  _493
REMARK  198  A    between atoms: _492  and  _495
REMARK  199  A    between atoms: _495  and  _496
REMARK  200  A    between atoms: _496  and  _497
REMARK  201  A    between atoms: _497  and  _498
REMARK  202  A    between atoms: _507  and  _509
REMARK  203  A    between atoms: _509  and  _510
REMARK  204  A    between atoms: _513  and  _515
REMARK  205  A    between atoms: _515  and  _516
REMARK  206  A    between atoms: _515  and  _518
REMARK  207  A    between atoms: _518  and  _519
REMARK  208  A    between atoms: _519  and  _520
REMARK  209  A    between atoms: _520  and  _521
REMARK  210  A    between atoms: _530  and  _532
REMARK  211  A    between atoms: _532  and  _533
REMARK  212  A    between atoms: _532  and  _535
REMARK  213  A    between atoms: _535  and  _536
REMARK  214  A    between atoms: _539  and  _541
REMARK  215  A    between atoms: _541  and  _542
REMARK  216  A    between atoms: _544  and  _546
REMARK  217  A    between atoms: _546  and  _547
REMARK  218  A    between atoms: _546  and  _549
REMARK  219  A    between atoms: _549  and  _550
REMARK  220  A    between atoms: _550  and  _551
REMARK  221  A    between atoms: _551  and  _552
REMARK  222  A    between atoms: _561  and  _563
REMARK  223  A    between atoms: _563  and  _564
REMARK  224  A    between atoms: _567  and  _569
REMARK  225  A    between atoms: _569  and  _570
REMARK  226  A    between atoms: _569  and  _572
REMARK  227  A    between atoms: _572  and  _573
REMARK  228  A    between atoms: _573  and  _574
REMARK  229  A    between atoms: _574  and  _575
REMARK  230  A    between atoms: _584  and  _586
REMARK  231  A    between atoms: _586  and  _587
REMARK  232  A    between atoms: _586  and  _589
REMARK  233  A    between atoms: _589  and  _590
REMARK  234  A    between atoms: _593  and  _595
REMARK  235  A    between atoms: _595  and  _596
REMARK  236  A    between atoms: _595  and  _598
REMARK  237  A    between atoms: _598  and  _599
REMARK  238  A    between atoms: _604  and  _606
REMARK  239  A    between atoms: _606  and  _607
REMARK  240  A    between atoms: _606  and  _609
REMARK  241  A    between atoms: _609  and  _610
REMARK  242  A    between atoms: _615  and  _616
REMARK  243  A    between atoms: _618  and  _620
REMARK  244  A    between atoms: _620  and  _621
REMARK  245  A    between atoms: _620  and  _623
REMARK  246  A    between atoms: _623  and  _624
REMARK  247  A    between atoms: _624  and  _625
REMARK  248  A    between atoms: _625  and  _627
REMARK  249  A    between atoms: _627  and  MG_715
REMARK  250  A    between atoms: _628  and  _630
REMARK  251  A    between atoms: _630  and  _631
REMARK  252  A    between atoms: _630  and  _633
REMARK  253  A    between atoms: _633  and  _634
REMARK  254  A    between atoms: _634  and  _635
REMARK  255  A    between atoms: _635  and  _636
REMARK  256  A    between atoms: _645  and  _647
REMARK  257  A    between atoms: _647  and  _648
REMARK  258  A    between atoms: _647  and  _650
REMARK  259  A    between atoms: _650  and  _651
REMARK  260  A    between atoms: _654  and  _656
REMARK  261  A    between atoms: _656  and  _657
REMARK  262  A    between atoms: _656  and  _659
REMARK  263  A    between atoms: _659  and  _660
REMARK  264  A    between atoms: _663  and  _665
REMARK  265  A    between atoms: _665  and  _666
REMARK  266  A    between atoms: _665  and  _668
REMARK  267  A    between atoms: _668  and  _669
REMARK  268  A    between atoms: _669  and  _670
REMARK  269  A    between atoms: _675  and  _677
REMARK  270  A    between atoms: _677  and  _678
REMARK  271  A    between atoms: _677  and  _680
REMARK  272  A    between atoms: _680  and  _681
REMARK  273  A    between atoms: _684  and  _686
REMARK  274  A    between atoms: _686  and  _687
REMARK  275  A    between atoms: _686  and  _689
REMARK  276  A    between atoms: _689  and  _690
REMARK  277  A    between atoms: _695  and  _696
REMARK  278  A    between atoms: _698  and  _700
REMARK  279  A    between atoms: _700  and  _701
REMARK  280  A    between atoms: _700  and  _703
REMARK  281  A    between atoms: _703  and  _704
REMARK  282  A    between atoms: _704  and  _705
REMARK  283  A    between atoms: _705  and  _706
REMARK                            x       y       z     vdW  Elec       q    Type
REMARK                         _______ _______ _______ _____ _____    ______ ____
ROOT
ATOM      1  O   HOH     1      19.668   4.396   8.379  0.00  0.00    +0.000 OA
ENDROOT
TORSDOF 0
REMARK  Name = ../refined-set-2016/1mrn/1mrn_pocket.pdb
REMARK  283 active torsions:
REMARK  status: ('A' for Active; 'I' for Inactive)
REMARK    1  A    between atoms: _1  and  _3
REMARK    2  A    between atoms: _3  and  _4
REMARK    3  A    between atoms: _3  and  _6
REMARK    4  A    between atoms: _6  and  _7
REMARK    5  A    between atoms: _7  and  _8
REMARK    6  A    between atoms: _11  and  _13
REMARK    7  A    between atoms: _13  and  _14
REMARK    8  A    between atoms: _16  and  _18
REMARK    9  A    between atoms: _18  and  _19
REMARK   10  A    between atoms: _18  and  _21
REMARK   11  A    between atoms: _24  and  _26
REMARK   12  A    between atoms: _26  and  _27
REMARK   13  A    between atoms: _26  and  _29
REMARK   14  A    between atoms: _29  and  _30
REMARK   15  A    between atoms: _30  and  _31
REMARK   16  A    between atoms: _31  and  MG_715
REMARK   17  A    between atoms: _33  and  _35
REMARK   18  A    between atoms: _35  and  _36
REMARK   19  A    between atoms: _38  and  _40
REMARK   20  A    between atoms: _40  and  _41
REMARK   21  A    between atoms: _44  and  _46
REMARK   22  A    between atoms: _46  and  _47
REMARK   23  A    between atoms: _46  and  _49
REMARK   24  A    between atoms: _49  and  _50
REMARK   25  A    between atoms: _50  and  _51
REMARK   26  A    between atoms: _51  and  _52
REMARK   27  A    between atoms: _52  and  _53
REMARK   28  A    between atoms: _57  and  _59
REMARK   29  A    between atoms: _59  and  _60
REMARK   30  A    between atoms: _59  and  _62
REMARK   31  A    between atoms: _62  and  _63
REMARK   32  A    between atoms: _63  and  _64
REMARK   33  A    between atoms: _64  and  _65
REMARK   34  A    between atoms: _74  and  _76
REMARK   35  A    between atoms: _76  and  _77
REMARK   36  A    between atoms: _80  and  _82
REMARK   37  A    between atoms: _82  and  _83
REMARK   38  A    between atoms: _82  and  _85
REMARK   39  A    between atoms: _85  and  _86
REMARK   40  A    between atoms: _93  and  _94
REMARK   41  A    between atoms: _99  and  _101
REMARK   42  A    between atoms: _101  and  _102
REMARK   43  A    between atoms: _101  and  _104
REMARK   44  A    between atoms: _104  and  _105
REMARK   45  A    between atoms: _105  and  _106
REMARK   46  A    between atoms: _106  and  _107
REMARK   47  A    between atoms: _116  and  _118
REMARK   48  A    between atoms: _118  and  _119
REMARK   49  A    between atoms: _118  and  _121
REMARK   50  A    between atoms: _121  and  _122
REMARK   51  A    between atoms: _127  and  _128
REMARK   52  A    between atoms: _130  and  _132
REMARK   53  A    between atoms: _132  and  _133
REMARK   54  A    between atoms: _135  and  _137
REMARK   55  A    between atoms: _137  and  _138
REMARK   56  A    between atoms: _137  and  _140
REMARK   57  A    between atoms: _140  and  _141
REMARK   58  A    between atoms: _143  and  _145
REMARK   59  A    between atoms: _145  and  _146
REMARK   60  A    between atoms: _145  and  _148
REMARK   61  A    between atoms: _151  and  _153
REMARK   62  A    between atoms: _153  and  _154
REMARK   63  A    between atoms: _157  and  _159
REMARK   64  A    between atoms: _159  and  _160
REMARK   65  A    between atoms: _159  and  _162
REMARK   66  A    between atoms: _162  and  _163
REMARK   67  A    between atoms: _166  and  _168
REMARK   68  A    between atoms: _168  and  _169
REMARK   69  A    between atoms: _168  and  _171
REMARK   70  A    between atoms: _171  and  _172
REMARK   71  A    between atoms: _175  and  _177
REMARK   72  A    between atoms: _177  and  _178
REMARK   73  A    between atoms: _181  and  _183
REMARK   74  A    between atoms: _183  and  _184
REMARK   75  A    between atoms: _187  and  _189
REMARK   76  A    between atoms: _189  and  _190
REMARK   77  A    between atoms: _189  and  _192
REMARK   78  A    between atoms: _192  and  _193
REMARK   79  A    between atoms: _193  and  _194
REMARK   80  A    between atoms: _197  and  _199
REMARK   81  A    between atoms: _199  and  _200
REMARK   82  A    between atoms: _203  and  _205
REMARK   83  A    between atoms: _205  and  _206
REMARK   84  A    between atoms: _205  and  _208
REMARK   85  A    between atoms: _208  and  _209
REMARK   86  A    between atoms: _212  and  _214
REMARK   87  A    between atoms: _214  and  _215
REMARK   88  A    between atoms: _214  and  _217
REMARK   89  A    between atoms: _217  and  _218
REMARK   90  A    between atoms: _223  and  _225
REMARK   91  A    between atoms: _225  and  _226
REMARK   92  A    between atoms: _228  and  _230
REMARK   93  A    between atoms: _230  and  _231
REMARK   94  A    between atoms: _230  and  _233
REMARK   95  A    between atoms: _233  and  _234
REMARK   96  A    between atoms: _234  and  _235
REMARK   97  A    between atoms: _238  and  _240
REMARK   98  A    between atoms: _240  and  _241
REMARK   99  A    between atoms: _240  and  _243
REMARK  100  A    between atoms: _243  and  _244
REMARK  101  A    between atoms: _249  and  _251
REMARK  102  A    between atoms: _251  and  _252
REMARK  103  A    between atoms: _251  and  _254
REMARK  104  A    between atoms: _257  and  _259
REMARK  105  A    between atoms: _259  and  _260
REMARK  106  A    between atoms: _259  and  _262
REMARK  107  A    between atoms: _262  and  _263
REMARK  108  A    between atoms: _263  and  _264
REMARK  109  A    between atoms: _266  and  _268
REMARK  110  A    between atoms: _268  and  _269
REMARK  111  A    between atoms: _272  and  _274
REMARK  112  A    between atoms: _274  and  _275
REMARK  113  A    between atoms: _274  and  _277
REMARK  114  A    between atoms: _277  and  _278
REMARK  115  A    between atoms: _281  and  _283
REMARK  116  A    between atoms: _283  and  _284
REMARK  117  A    between atoms: _283  and  _286
REMARK  118  A    between atoms: _286  and  _287
REMARK  119  A    between atoms: _290  and  _292
REMARK  120  A    between atoms: _292  and  _293
REMARK  121  A    between atoms: _292  and  _295
REMARK  122  A    between atoms: _295  and  _296
REMARK  123  A    between atoms: _302  and  _304
REMARK  124  A    between atoms: _304  and  _305
REMARK  125  A    between atoms: _308  and  _310
REMARK  126  A    between atoms: _310  and  _311
REMARK  127  A    between atoms: _310  and  _313
REMARK  128  A    between atoms: _313  and  _314
REMARK  129  A    between atoms: _317  and  _319
REMARK  130  A    between atoms: _319  and  _320
REMARK  131  A    between atoms: _319  and  _322
REMARK  132  A    between atoms: _322  and  _323
REMARK  133  A    between atoms: _323  and  _324
REMARK  134  A    between atoms: _324  and  _325
REMARK  135  A    between atoms: _334  and  _336
REMARK  136  A    between atoms: _336  and  _337
REMARK  137  A    between atoms: _336  and  _339
REMARK  138  A    between atoms: _339  and  _340
REMARK  139  A    between atoms: _343  and  _345
REMARK  140  A    between atoms: _345  and  _346
REMARK  141  A    between atoms: _345  and  _348
REMARK  142  A    between atoms: _348  and  _349
REMARK  143  A    between atoms: _349  and  _350
REMARK  144  A    between atoms: _350  and  _351
REMARK  145  A    between atoms: _360  and  _362
REMARK  146  A    between atoms: _362  and  _363
REMARK  147  A    between atoms: _362  and  _365
REMARK  148  A    between atoms: _365  and  _366
REMARK  149  A    between atoms: _371  and  _372
REMARK  150  A    between atoms: _374  and  _376
REMARK  151  A    between atoms: _376  and  _377
REMARK  152  A    between atoms: _376  and  _379
REMARK  153  A    between atoms: _382  and  _384
REMARK  154  A    between atoms: _384  and  _385
REMARK  155  A    between atoms: _388  and  _390
REMARK  156  A    between atoms: _390  and  _391
REMARK  157  A    between atoms: _390  and  _393
REMARK  158  A    between atoms: _393  and  _394
REMARK  159  A    between atoms: _396  and  _398
REMARK  160  A    between atoms: _398  and  _399
REMARK  161  A    between atoms: _398  and  _401
REMARK  162  A    between atoms: _401  and  _402
REMARK  163  A    between atoms: _407  and  _409
REMARK  164  A    between atoms: _409  and  _410
REMARK  165  A    between atoms: _413  and  _415
REMARK  166  A    between atoms: _415  and  _416
REMARK  167  A    between atoms: _419  and  _421
REMARK  168  A    between atoms: _421  and  _422
REMARK  169  A    between atoms: _421  and  _424
REMARK  170  A    between atoms: _424  and  _425
REMARK  171  A    between atoms: _430  and  _431
REMARK  172  A    between atoms: _433  and  _435
REMARK  173  A    between atoms: _435  and  _436
REMARK  174  A    between atoms: _435  and  _438
REMARK  175  A    between atoms: _438  and  _439
REMARK  176  A    between atoms: _441  and  _443
REMARK  177  A    between atoms: _443  and  _444
REMARK  178  A    between atoms: _447  and  _449
REMARK  179  A    between atoms: _449  and  _450
REMARK  180  A    between atoms: _449  and  _452
REMARK  181  A    between atoms: _452  and  _453
REMARK  182  A    between atoms: _453  and  _454
REMARK  183  A    between atoms: _454  and  _455
REMARK  184  A    between atoms: _464  and  _466
REMARK  185  A    between atoms: _466  and  _467
REMARK  186  A    between atoms: _466  and  _469
REMARK  187  A    between atoms: _472  and  _474
REMARK  188  A    between atoms: _474  and  _475
REMARK  189  A    between atoms: _474  and  _477
REMARK  190  A    between atoms: _477  and  _478
REMARK  191  A    between atoms: _478  and  _479
REMARK  192  A    between atoms: _482  and  _484
REMARK  193  A    between atoms: _484  and  _485
REMARK  194  A    between atoms: _484  and  _487
REMARK  195  A    between atoms: _487  and  _488
REMARK  196  A    between atoms: _490  and  _492
REMARK  197  A    between atoms: _492  and  _493
REMARK  198  A    between atoms: _492  and  _495
REMARK  199  A    between atoms: _495  and  _496
REMARK  200  A    between atoms: _496  and  _497
REMARK  201  A    between atoms: _497  and  _498
REMARK  202  A    between atoms: _507  and  _509
REMARK  203  A    between atoms: _509  and  _510
REMARK  204  A    between atoms: _513  and  _515
REMARK  205  A    between atoms: _515  and  _516
REMARK  206  A    between atoms: _515  and  _518
REMARK  207  A    between atoms: _518  and  _519
REMARK  208  A    between atoms: _519  and  _520
REMARK  209  A    between atoms: _520  and  _521
REMARK  210  A    between atoms: _530  and  _532
REMARK  211  A    between atoms: _532  and  _533
REMARK  212  A    between atoms: _532  and  _535
REMARK  213  A    between atoms: _535  and  _536
REMARK  214  A    between atoms: _539  and  _541
REMARK  215  A    between atoms: _541  and  _542
REMARK  216  A    between atoms: _544  and  _546
REMARK  217  A    between atoms: _546  and  _547
REMARK  218  A    between atoms: _546  and  _549
REMARK  219  A    between atoms: _549  and  _550
REMARK  220  A    between atoms: _550  and  _551
REMARK  221  A    between atoms: _551  and  _552
REMARK  222  A    between atoms: _561  and  _563
REMARK  223  A    between atoms: _563  and  _564
REMARK  224  A    between atoms: _567  and  _569
REMARK  225  A    between atoms: _569  and  _570
REMARK  226  A    between atoms: _569  and  _572
REMARK  227  A    between atoms: _572  and  _573
REMARK  228  A    between atoms: _573  and  _574
REMARK  229  A    between atoms: _574  and  _575
REMARK  230  A    between atoms: _584  and  _586
REMARK  231  A    between atoms: _586  and  _587
REMARK  232  A    between atoms: _586  and  _589
REMARK  233  A    between atoms: _589  and  _590
REMARK  234  A    between atoms: _593  and  _595
REMARK  235  A    between atoms: _595  and  _596
REMARK  236  A    between atoms: _595  and  _598
REMARK  237  A    between atoms: _598  and  _599
REMARK  238  A    between atoms: _604  and  _606
REMARK  239  A    between atoms: _606  and  _607
REMARK  240  A    between atoms: _606  and  _609
REMARK  241  A    between atoms: _609  and  _610
REMARK  242  A    between atoms: _615  and  _616
REMARK  243  A    between atoms: _618  and  _620
REMARK  244  A    between atoms: _620  and  _621
REMARK  245  A    between atoms: _620  and  _623
REMARK  246  A    between atoms: _623  and  _624
REMARK  247  A    between atoms: _624  and  _625
REMARK  248  A    between atoms: _625  and  _627
REMARK  249  A    between atoms: _627  and  MG_715
REMARK  250  A    between atoms: _628  and  _630
REMARK  251  A    between atoms: _630  and  _631
REMARK  252  A    between atoms: _630  and  _633
REMARK  253  A    between atoms: _633  and  _634
REMARK  254  A    between atoms: _634  and  _635
REMARK  255  A    between atoms: _635  and  _636
REMARK  256  A    between atoms: _645  and  _647
REMARK  257  A    between atoms: _647  and  _648
REMARK  258  A    between atoms: _647  and  _650
REMARK  259  A    between atoms: _650  and  _651
REMARK  260  A    between atoms: _654  and  _656
REMARK  261  A    between atoms: _656  and  _657
REMARK  262  A    between atoms: _656  and  _659
REMARK  263  A    between atoms: _659  and  _660
REMARK  264  A    between atoms: _663  and  _665
REMARK  265  A    between atoms: _665  and  _666
REMARK  266  A    between atoms: _665  and  _668
REMARK  267  A    between atoms: _668  and  _669
REMARK  268  A    between atoms: _669  and  _670
REMARK  269  A    between atoms: _675  and  _677
REMARK  270  A    between atoms: _677  and  _678
REMARK  271  A    between atoms: _677  and  _680
REMARK  272  A    between atoms: _680  and  _681
REMARK  273  A    between atoms: _684  and  _686
REMARK  274  A    between atoms: _686  and  _687
REMARK  275  A    between atoms: _686  and  _689
REMARK  276  A    between atoms: _689  and  _690
REMARK  277  A    between atoms: _695  and  _696
REMARK  278  A    between atoms: _698  and  _700
REMARK  279  A    between atoms: _700  and  _701
REMARK  280  A    between atoms: _700  and  _703
REMARK  281  A    between atoms: _703  and  _704
REMARK  282  A    between atoms: _704  and  _705
REMARK  283  A    between atoms: _705  and  _706
REMARK                            x       y       z     vdW  Elec       q    Type
REMARK                         _______ _______ _______ _____ _____    ______ ____
ROOT
ATOM      1  O   HOH     1      25.616  16.919  11.510  0.00  0.00    +0.000 OA
ENDROOT
TORSDOF 0
REMARK  Name = ../refined-set-2016/1mrn/1mrn_pocket.pdb
REMARK  283 active torsions:
REMARK  status: ('A' for Active; 'I' for Inactive)
REMARK    1  A    between atoms: _1  and  _3
REMARK    2  A    between atoms: _3  and  _4
REMARK    3  A    between atoms: _3  and  _6
REMARK    4  A    between atoms: _6  and  _7
REMARK    5  A    between atoms: _7  and  _8
REMARK    6  A    between atoms: _11  and  _13
REMARK    7  A    between atoms: _13  and  _14
REMARK    8  A    between atoms: _16  and  _18
REMARK    9  A    between atoms: _18  and  _19
REMARK   10  A    between atoms: _18  and  _21
REMARK   11  A    between atoms: _24  and  _26
REMARK   12  A    between atoms: _26  and  _27
REMARK   13  A    between atoms: _26  and  _29
REMARK   14  A    between atoms: _29  and  _30
REMARK   15  A    between atoms: _30  and  _31
REMARK   16  A    between atoms: _31  and  MG_715
REMARK   17  A    between atoms: _33  and  _35
REMARK   18  A    between atoms: _35  and  _36
REMARK   19  A    between atoms: _38  and  _40
REMARK   20  A    between atoms: _40  and  _41
REMARK   21  A    between atoms: _44  and  _46
REMARK   22  A    between atoms: _46  and  _47
REMARK   23  A    between atoms: _46  and  _49
REMARK   24  A    between atoms: _49  and  _50
REMARK   25  A    between atoms: _50  and  _51
REMARK   26  A    between atoms: _51  and  _52
REMARK   27  A    between atoms: _52  and  _53
REMARK   28  A    between atoms: _57  and  _59
REMARK   29  A    between atoms: _59  and  _60
REMARK   30  A    between atoms: _59  and  _62
REMARK   31  A    between atoms: _62  and  _63
REMARK   32  A    between atoms: _63  and  _64
REMARK   33  A    between atoms: _64  and  _65
REMARK   34  A    between atoms: _74  and  _76
REMARK   35  A    between atoms: _76  and  _77
REMARK   36  A    between atoms: _80  and  _82
REMARK   37  A    between atoms: _82  and  _83
REMARK   38  A    between atoms: _82  and  _85
REMARK   39  A    between atoms: _85  and  _86
REMARK   40  A    between atoms: _93  and  _94
REMARK   41  A    between atoms: _99  and  _101
REMARK   42  A    between atoms: _101  and  _102
REMARK   43  A    between atoms: _101  and  _104
REMARK   44  A    between atoms: _104  and  _105
REMARK   45  A    between atoms: _105  and  _106
REMARK   46  A    between atoms: _106  and  _107
REMARK   47  A    between atoms: _116  and  _118
REMARK   48  A    between atoms: _118  and  _119
REMARK   49  A    between atoms: _118  and  _121
REMARK   50  A    between atoms: _121  and  _122
REMARK   51  A    between atoms: _127  and  _128
REMARK   52  A    between atoms: _130  and  _132
REMARK   53  A    between atoms: _132  and  _133
REMARK   54  A    between atoms: _135  and  _137
REMARK   55  A    between atoms: _137  and  _138
REMARK   56  A    between atoms: _137  and  _140
REMARK   57  A    between atoms: _140  and  _141
REMARK   58  A    between atoms: _143  and  _145
REMARK   59  A    between atoms: _145  and  _146
REMARK   60  A    between atoms: _145  and  _148
REMARK   61  A    between atoms: _151  and  _153
REMARK   62  A    between atoms: _153  and  _154
REMARK   63  A    between atoms: _157  and  _159
REMARK   64  A    between atoms: _159  and  _160
REMARK   65  A    between atoms: _159  and  _162
REMARK   66  A    between atoms: _162  and  _163
REMARK   67  A    between atoms: _166  and  _168
REMARK   68  A    between atoms: _168  and  _169
REMARK   69  A    between atoms: _168  and  _171
REMARK   70  A    between atoms: _171  and  _172
REMARK   71  A    between atoms: _175  and  _177
REMARK   72  A    between atoms: _177  and  _178
REMARK   73  A    between atoms: _181  and  _183
REMARK   74  A    between atoms: _183  and  _184
REMARK   75  A    between atoms: _187  and  _189
REMARK   76  A    between atoms: _189  and  _190
REMARK   77  A    between atoms: _189  and  _192
REMARK   78  A    between atoms: _192  and  _193
REMARK   79  A    between atoms: _193  and  _194
REMARK   80  A    between atoms: _197  and  _199
REMARK   81  A    between atoms: _199  and  _200
REMARK   82  A    between atoms: _203  and  _205
REMARK   83  A    between atoms: _205  and  _206
REMARK   84  A    between atoms: _205  and  _208
REMARK   85  A    between atoms: _208  and  _209
REMARK   86  A    between atoms: _212  and  _214
REMARK   87  A    between atoms: _214  and  _215
REMARK   88  A    between atoms: _214  and  _217
REMARK   89  A    between atoms: _217  and  _218
REMARK   90  A    between atoms: _223  and  _225
REMARK   91  A    between atoms: _225  and  _226
REMARK   92  A    between atoms: _228  and  _230
REMARK   93  A    between atoms: _230  and  _231
REMARK   94  A    between atoms: _230  and  _233
REMARK   95  A    between atoms: _233  and  _234
REMARK   96  A    between atoms: _234  and  _235
REMARK   97  A    between atoms: _238  and  _240
REMARK   98  A    between atoms: _240  and  _241
REMARK   99  A    between atoms: _240  and  _243
REMARK  100  A    between atoms: _243  and  _244
REMARK  101  A    between atoms: _249  and  _251
REMARK  102  A    between atoms: _251  and  _252
REMARK  103  A    between atoms: _251  and  _254
REMARK  104  A    between atoms: _257  and  _259
REMARK  105  A    between atoms: _259  and  _260
REMARK  106  A    between atoms: _259  and  _262
REMARK  107  A    between atoms: _262  and  _263
REMARK  108  A    between atoms: _263  and  _264
REMARK  109  A    between atoms: _266  and  _268
REMARK  110  A    between atoms: _268  and  _269
REMARK  111  A    between atoms: _272  and  _274
REMARK  112  A    between atoms: _274  and  _275
REMARK  113  A    between atoms: _274  and  _277
REMARK  114  A    between atoms: _277  and  _278
REMARK  115  A    between atoms: _281  and  _283
REMARK  116  A    between atoms: _283  and  _284
REMARK  117  A    between atoms: _283  and  _286
REMARK  118  A    between atoms: _286  and  _287
REMARK  119  A    between atoms: _290  and  _292
REMARK  120  A    between atoms: _292  and  _293
REMARK  121  A    between atoms: _292  and  _295
REMARK  122  A    between atoms: _295  and  _296
REMARK  123  A    between atoms: _302  and  _304
REMARK  124  A    between atoms: _304  and  _305
REMARK  125  A    between atoms: _308  and  _310
REMARK  126  A    between atoms: _310  and  _311
REMARK  127  A    between atoms: _310  and  _313
REMARK  128  A    between atoms: _313  and  _314
REMARK  129  A    between atoms: _317  and  _319
REMARK  130  A    between atoms: _319  and  _320
REMARK  131  A    between atoms: _319  and  _322
REMARK  132  A    between atoms: _322  and  _323
REMARK  133  A    between atoms: _323  and  _324
REMARK  134  A    between atoms: _324  and  _325
REMARK  135  A    between atoms: _334  and  _336
REMARK  136  A    between atoms: _336  and  _337
REMARK  137  A    between atoms: _336  and  _339
REMARK  138  A    between atoms: _339  and  _340
REMARK  139  A    between atoms: _343  and  _345
REMARK  140  A    between atoms: _345  and  _346
REMARK  141  A    between atoms: _345  and  _348
REMARK  142  A    between atoms: _348  and  _349
REMARK  143  A    between atoms: _349  and  _350
REMARK  144  A    between atoms: _350  and  _351
REMARK  145  A    between atoms: _360  and  _362
REMARK  146  A    between atoms: _362  and  _363
REMARK  147  A    between atoms: _362  and  _365
REMARK  148  A    between atoms: _365  and  _366
REMARK  149  A    between atoms: _371  and  _372
REMARK  150  A    between atoms: _374  and  _376
REMARK  151  A    between atoms: _376  and  _377
REMARK  152  A    between atoms: _376  and  _379
REMARK  153  A    between atoms: _382  and  _384
REMARK  154  A    between atoms: _384  and  _385
REMARK  155  A    between atoms: _388  and  _390
REMARK  156  A    between atoms: _390  and  _391
REMARK  157  A    between atoms: _390  and  _393
REMARK  158  A    between atoms: _393  and  _394
REMARK  159  A    between atoms: _396  and  _398
REMARK  160  A    between atoms: _398  and  _399
REMARK  161  A    between atoms: _398  and  _401
REMARK  162  A    between atoms: _401  and  _402
REMARK  163  A    between atoms: _407  and  _409
REMARK  164  A    between atoms: _409  and  _410
REMARK  165  A    between atoms: _413  and  _415
REMARK  166  A    between atoms: _415  and  _416
REMARK  167  A    between atoms: _419  and  _421
REMARK  168  A    between atoms: _421  and  _422
REMARK  169  A    between atoms: _421  and  _424
REMARK  170  A    between atoms: _424  and  _425
REMARK  171  A    between atoms: _430  and  _431
REMARK  172  A    between atoms: _433  and  _435
REMARK  173  A    between atoms: _435  and  _436
REMARK  174  A    between atoms: _435  and  _438
REMARK  175  A    between atoms: _438  and  _439
REMARK  176  A    between atoms: _441  and  _443
REMARK  177  A    between atoms: _443  and  _444
REMARK  178  A    between atoms: _447  and  _449
REMARK  179  A    between atoms: _449  and  _450
REMARK  180  A    between atoms: _449  and  _452
REMARK  181  A    between atoms: _452  and  _453
REMARK  182  A    between atoms: _453  and  _454
REMARK  183  A    between atoms: _454  and  _455
REMARK  184  A    between atoms: _464  and  _466
REMARK  185  A    between atoms: _466  and  _467
REMARK  186  A    between atoms: _466  and  _469
REMARK  187  A    between atoms: _472  and  _474
REMARK  188  A    between atoms: _474  and  _475
REMARK  189  A    between atoms: _474  and  _477
REMARK  190  A    between atoms: _477  and  _478
REMARK  191  A    between atoms: _478  and  _479
REMARK  192  A    between atoms: _482  and  _484
REMARK  193  A    between atoms: _484  and  _485
REMARK  194  A    between atoms: _484  and  _487
REMARK  195  A    between atoms: _487  and  _488
REMARK  196  A    between atoms: _490  and  _492
REMARK  197  A    between atoms: _492  and  _493
REMARK  198  A    between atoms: _492  and  _495
REMARK  199  A    between atoms: _495  and  _496
REMARK  200  A    between atoms: _496  and  _497
REMARK  201  A    between atoms: _497  and  _498
REMARK  202  A    between atoms: _507  and  _509
REMARK  203  A    between atoms: _509  and  _510
REMARK  204  A    between atoms: _513  and  _515
REMARK  205  A    between atoms: _515  and  _516
REMARK  206  A    between atoms: _515  and  _518
REMARK  207  A    between atoms: _518  and  _519
REMARK  208  A    between atoms: _519  and  _520
REMARK  209  A    between atoms: _520  and  _521
REMARK  210  A    between atoms: _530  and  _532
REMARK  211  A    between atoms: _532  and  _533
REMARK  212  A    between atoms: _532  and  _535
REMARK  213  A    between atoms: _535  and  _536
REMARK  214  A    between atoms: _539  and  _541
REMARK  215  A    between atoms: _541  and  _542
REMARK  216  A    between atoms: _544  and  _546
REMARK  217  A    between atoms: _546  and  _547
REMARK  218  A    between atoms: _546  and  _549
REMARK  219  A    between atoms: _549  and  _550
REMARK  220  A    between atoms: _550  and  _551
REMARK  221  A    between atoms: _551  and  _552
REMARK  222  A    between atoms: _561  and  _563
REMARK  223  A    between atoms: _563  and  _564
REMARK  224  A    between atoms: _567  and  _569
REMARK  225  A    between atoms: _569  and  _570
REMARK  226  A    between atoms: _569  and  _572
REMARK  227  A    between atoms: _572  and  _573
REMARK  228  A    between atoms: _573  and  _574
REMARK  229  A    between atoms: _574  and  _575
REMARK  230  A    between atoms: _584  and  _586
REMARK  231  A    between atoms: _586  and  _587
REMARK  232  A    between atoms: _586  and  _589
REMARK  233  A    between atoms: _589  and  _590
REMARK  234  A    between atoms: _593  and  _595
REMARK  235  A    between atoms: _595  and  _596
REMARK  236  A    between atoms: _595  and  _598
REMARK  237  A    between atoms: _598  and  _599
REMARK  238  A    between atoms: _604  and  _606
REMARK  239  A    between atoms: _606  and  _607
REMARK  240  A    between atoms: _606  and  _609
REMARK  241  A    between atoms: _609  and  _610
REMARK  242  A    between atoms: _615  and  _616
REMARK  243  A    between atoms: _618  and  _620
REMARK  244  A    between atoms: _620  and  _621
REMARK  245  A    between atoms: _620  and  _623
REMARK  246  A    between atoms: _623  and  _624
REMARK  247  A    between atoms: _624  and  _625
REMARK  248  A    between atoms: _625  and  _627
REMARK  249  A    between atoms: _627  and  MG_715
REMARK  250  A    between atoms: _628  and  _630
REMARK  251  A    between atoms: _630  and  _631
REMARK  252  A    between atoms: _630  and  _633
REMARK  253  A    between atoms: _633  and  _634
REMARK  254  A    between atoms: _634  and  _635
REMARK  255  A    between atoms: _635  and  _636
REMARK  256  A    between atoms: _645  and  _647
REMARK  257  A    between atoms: _647  and  _648
REMARK  258  A    between atoms: _647  and  _650
REMARK  259  A    between atoms: _650  and  _651
REMARK  260  A    between atoms: _654  and  _656
REMARK  261  A    between atoms: _656  and  _657
REMARK  262  A    between atoms: _656  and  _659
REMARK  263  A    between atoms: _659  and  _660
REMARK  264  A    between atoms: _663  and  _665
REMARK  265  A    between atoms: _665  and  _666
REMARK  266  A    between atoms: _665  and  _668
REMARK  267  A    between atoms: _668  and  _669
REMARK  268  A    between atoms: _669  and  _670
REMARK  269  A    between atoms: _675  and  _677
REMARK  270  A    between atoms: _677  and  _678
REMARK  271  A    between atoms: _677  and  _680
REMARK  272  A    between atoms: _680  and  _681
REMARK  273  A    between atoms: _684  and  _686
REMARK  274  A    between atoms: _686  and  _687
REMARK  275  A    between atoms: _686  and  _689
REMARK  276  A    between atoms: _689  and  _690
REMARK  277  A    between atoms: _695  and  _696
REMARK  278  A    between atoms: _698  and  _700
REMARK  279  A    between atoms: _700  and  _701
REMARK  280  A    between atoms: _700  and  _703
REMARK  281  A    between atoms: _703  and  _704
REMARK  282  A    between atoms: _704  and  _705
REMARK  283  A    between atoms: _705  and  _706
REMARK                            x       y       z     vdW  Elec       q    Type
REMARK                         _______ _______ _______ _____ _____    ______ ____
ROOT
ATOM      1  O   HOH     1      32.203   9.530  -5.116  0.00  0.00    +0.000 OA
ENDROOT
TORSDOF 0
REMARK  Name = ../refined-set-2016/1mrn/1mrn_pocket.pdb
REMARK  283 active torsions:
REMARK  status: ('A' for Active; 'I' for Inactive)
REMARK    1  A    between atoms: _1  and  _3
REMARK    2  A    between atoms: _3  and  _4
REMARK    3  A    between atoms: _3  and  _6
REMARK    4  A    between atoms: _6  and  _7
REMARK    5  A    between atoms: _7  and  _8
REMARK    6  A    between atoms: _11  and  _13
REMARK    7  A    between atoms: _13  and  _14
REMARK    8  A    between atoms: _16  and  _18
REMARK    9  A    between atoms: _18  and  _19
REMARK   10  A    between atoms: _18  and  _21
REMARK   11  A    between atoms: _24  and  _26
REMARK   12  A    between atoms: _26  and  _27
REMARK   13  A    between atoms: _26  and  _29
REMARK   14  A    between atoms: _29  and  _30
REMARK   15  A    between atoms: _30  and  _31
REMARK   16  A    between atoms: _31  and  MG_715
REMARK   17  A    between atoms: _33  and  _35
REMARK   18  A    between atoms: _35  and  _36
REMARK   19  A    between atoms: _38  and  _40
REMARK   20  A    between atoms: _40  and  _41
REMARK   21  A    between atoms: _44  and  _46
REMARK   22  A    between atoms: _46  and  _47
REMARK   23  A    between atoms: _46  and  _49
REMARK   24  A    between atoms: _49  and  _50
REMARK   25  A    between atoms: _50  and  _51
REMARK   26  A    between atoms: _51  and  _52
REMARK   27  A    between atoms: _52  and  _53
REMARK   28  A    between atoms: _57  and  _59
REMARK   29  A    between atoms: _59  and  _60
REMARK   30  A    between atoms: _59  and  _62
REMARK   31  A    between atoms: _62  and  _63
REMARK   32  A    between atoms: _63  and  _64
REMARK   33  A    between atoms: _64  and  _65
REMARK   34  A    between atoms: _74  and  _76
REMARK   35  A    between atoms: _76  and  _77
REMARK   36  A    between atoms: _80  and  _82
REMARK   37  A    between atoms: _82  and  _83
REMARK   38  A    between atoms: _82  and  _85
REMARK   39  A    between atoms: _85  and  _86
REMARK   40  A    between atoms: _93  and  _94
REMARK   41  A    between atoms: _99  and  _101
REMARK   42  A    between atoms: _101  and  _102
REMARK   43  A    between atoms: _101  and  _104
REMARK   44  A    between atoms: _104  and  _105
REMARK   45  A    between atoms: _105  and  _106
REMARK   46  A    between atoms: _106  and  _107
REMARK   47  A    between atoms: _116  and  _118
REMARK   48  A    between atoms: _118  and  _119
REMARK   49  A    between atoms: _118  and  _121
REMARK   50  A    between atoms: _121  and  _122
REMARK   51  A    between atoms: _127  and  _128
REMARK   52  A    between atoms: _130  and  _132
REMARK   53  A    between atoms: _132  and  _133
REMARK   54  A    between atoms: _135  and  _137
REMARK   55  A    between atoms: _137  and  _138
REMARK   56  A    between atoms: _137  and  _140
REMARK   57  A    between atoms: _140  and  _141
REMARK   58  A    between atoms: _143  and  _145
REMARK   59  A    between atoms: _145  and  _146
REMARK   60  A    between atoms: _145  and  _148
REMARK   61  A    between atoms: _151  and  _153
REMARK   62  A    between atoms: _153  and  _154
REMARK   63  A    between atoms: _157  and  _159
REMARK   64  A    between atoms: _159  and  _160
REMARK   65  A    between atoms: _159  and  _162
REMARK   66  A    between atoms: _162  and  _163
REMARK   67  A    between atoms: _166  and  _168
REMARK   68  A    between atoms: _168  and  _169
REMARK   69  A    between atoms: _168  and  _171
REMARK   70  A    between atoms: _171  and  _172
REMARK   71  A    between atoms: _175  and  _177
REMARK   72  A    between atoms: _177  and  _178
REMARK   73  A    between atoms: _181  and  _183
REMARK   74  A    between atoms: _183  and  _184
REMARK   75  A    between atoms: _187  and  _189
REMARK   76  A    between atoms: _189  and  _190
REMARK   77  A    between atoms: _189  and  _192
REMARK   78  A    between atoms: _192  and  _193
REMARK   79  A    between atoms: _193  and  _194
REMARK   80  A    between atoms: _197  and  _199
REMARK   81  A    between atoms: _199  and  _200
REMARK   82  A    between atoms: _203  and  _205
REMARK   83  A    between atoms: _205  and  _206
REMARK   84  A    between atoms: _205  and  _208
REMARK   85  A    between atoms: _208  and  _209
REMARK   86  A    between atoms: _212  and  _214
REMARK   87  A    between atoms: _214  and  _215
REMARK   88  A    between atoms: _214  and  _217
REMARK   89  A    between atoms: _217  and  _218
REMARK   90  A    between atoms: _223  and  _225
REMARK   91  A    between atoms: _225  and  _226
REMARK   92  A    between atoms: _228  and  _230
REMARK   93  A    between atoms: _230  and  _231
REMARK   94  A    between atoms: _230  and  _233
REMARK   95  A    between atoms: _233  and  _234
REMARK   96  A    between atoms: _234  and  _235
REMARK   97  A    between atoms: _238  and  _240
REMARK   98  A    between atoms: _240  and  _241
REMARK   99  A    between atoms: _240  and  _243
REMARK  100  A    between atoms: _243  and  _244
REMARK  101  A    between atoms: _249  and  _251
REMARK  102  A    between atoms: _251  and  _252
REMARK  103  A    between atoms: _251  and  _254
REMARK  104  A    between atoms: _257  and  _259
REMARK  105  A    between atoms: _259  and  _260
REMARK  106  A    between atoms: _259  and  _262
REMARK  107  A    between atoms: _262  and  _263
REMARK  108  A    between atoms: _263  and  _264
REMARK  109  A    between atoms: _266  and  _268
REMARK  110  A    between atoms: _268  and  _269
REMARK  111  A    between atoms: _272  and  _274
REMARK  112  A    between atoms: _274  and  _275
REMARK  113  A    between atoms: _274  and  _277
REMARK  114  A    between atoms: _277  and  _278
REMARK  115  A    between atoms: _281  and  _283
REMARK  116  A    between atoms: _283  and  _284
REMARK  117  A    between atoms: _283  and  _286
REMARK  118  A    between atoms: _286  and  _287
REMARK  119  A    between atoms: _290  and  _292
REMARK  120  A    between atoms: _292  and  _293
REMARK  121  A    between atoms: _292  and  _295
REMARK  122  A    between atoms: _295  and  _296
REMARK  123  A    between atoms: _302  and  _304
REMARK  124  A    between atoms: _304  and  _305
REMARK  125  A    between atoms: _308  and  _310
REMARK  126  A    between atoms: _310  and  _311
REMARK  127  A    between atoms: _310  and  _313
REMARK  128  A    between atoms: _313  and  _314
REMARK  129  A    between atoms: _317  and  _319
REMARK  130  A    between atoms: _319  and  _320
REMARK  131  A    between atoms: _319  and  _322
REMARK  132  A    between atoms: _322  and  _323
REMARK  133  A    between atoms: _323  and  _324
REMARK  134  A    between atoms: _324  and  _325
REMARK  135  A    between atoms: _334  and  _336
REMARK  136  A    between atoms: _336  and  _337
REMARK  137  A    between atoms: _336  and  _339
REMARK  138  A    between atoms: _339  and  _340
REMARK  139  A    between atoms: _343  and  _345
REMARK  140  A    between atoms: _345  and  _346
REMARK  141  A    between atoms: _345  and  _348
REMARK  142  A    between atoms: _348  and  _349
REMARK  143  A    between atoms: _349  and  _350
REMARK  144  A    between atoms: _350  and  _351
REMARK  145  A    between atoms: _360  and  _362
REMARK  146  A    between atoms: _362  and  _363
REMARK  147  A    between atoms: _362  and  _365
REMARK  148  A    between atoms: _365  and  _366
REMARK  149  A    between atoms: _371  and  _372
REMARK  150  A    between atoms: _374  and  _376
REMARK  151  A    between atoms: _376  and  _377
REMARK  152  A    between atoms: _376  and  _379
REMARK  153  A    between atoms: _382  and  _384
REMARK  154  A    between atoms: _384  and  _385
REMARK  155  A    between atoms: _388  and  _390
REMARK  156  A    between atoms: _390  and  _391
REMARK  157  A    between atoms: _390  and  _393
REMARK  158  A    between atoms: _393  and  _394
REMARK  159  A    between atoms: _396  and  _398
REMARK  160  A    between atoms: _398  and  _399
REMARK  161  A    between atoms: _398  and  _401
REMARK  162  A    between atoms: _401  and  _402
REMARK  163  A    between atoms: _407  and  _409
REMARK  164  A    between atoms: _409  and  _410
REMARK  165  A    between atoms: _413  and  _415
REMARK  166  A    between atoms: _415  and  _416
REMARK  167  A    between atoms: _419  and  _421
REMARK  168  A    between atoms: _421  and  _422
REMARK  169  A    between atoms: _421  and  _424
REMARK  170  A    between atoms: _424  and  _425
REMARK  171  A    between atoms: _430  and  _431
REMARK  172  A    between atoms: _433  and  _435
REMARK  173  A    between atoms: _435  and  _436
REMARK  174  A    between atoms: _435  and  _438
REMARK  175  A    between atoms: _438  and  _439
REMARK  176  A    between atoms: _441  and  _443
REMARK  177  A    between atoms: _443  and  _444
REMARK  178  A    between atoms: _447  and  _449
REMARK  179  A    between atoms: _449  and  _450
REMARK  180  A    between atoms: _449  and  _452
REMARK  181  A    between atoms: _452  and  _453
REMARK  182  A    between atoms: _453  and  _454
REMARK  183  A    between atoms: _454  and  _455
REMARK  184  A    between atoms: _464  and  _466
REMARK  185  A    between atoms: _466  and  _467
REMARK  186  A    between atoms: _466  and  _469
REMARK  187  A    between atoms: _472  and  _474
REMARK  188  A    between atoms: _474  and  _475
REMARK  189  A    between atoms: _474  and  _477
REMARK  190  A    between atoms: _477  and  _478
REMARK  191  A    between atoms: _478  and  _479
REMARK  192  A    between atoms: _482  and  _484
REMARK  193  A    between atoms: _484  and  _485
REMARK  194  A    between atoms: _484  and  _487
REMARK  195  A    between atoms: _487  and  _488
REMARK  196  A    between atoms: _490  and  _492
REMARK  197  A    between atoms: _492  and  _493
REMARK  198  A    between atoms: _492  and  _495
REMARK  199  A    between atoms: _495  and  _496
REMARK  200  A    between atoms: _496  and  _497
REMARK  201  A    between atoms: _497  and  _498
REMARK  202  A    between atoms: _507  and  _509
REMARK  203  A    between atoms: _509  and  _510
REMARK  204  A    between atoms: _513  and  _515
REMARK  205  A    between atoms: _515  and  _516
REMARK  206  A    between atoms: _515  and  _518
REMARK  207  A    between atoms: _518  and  _519
REMARK  208  A    between atoms: _519  and  _520
REMARK  209  A    between atoms: _520  and  _521
REMARK  210  A    between atoms: _530  and  _532
REMARK  211  A    between atoms: _532  and  _533
REMARK  212  A    between atoms: _532  and  _535
REMARK  213  A    between atoms: _535  and  _536
REMARK  214  A    between atoms: _539  and  _541
REMARK  215  A    between atoms: _541  and  _542
REMARK  216  A    between atoms: _544  and  _546
REMARK  217  A    between atoms: _546  and  _547
REMARK  218  A    between atoms: _546  and  _549
REMARK  219  A    between atoms: _549  and  _550
REMARK  220  A    between atoms: _550  and  _551
REMARK  221  A    between atoms: _551  and  _552
REMARK  222  A    between atoms: _561  and  _563
REMARK  223  A    between atoms: _563  and  _564
REMARK  224  A    between atoms: _567  and  _569
REMARK  225  A    between atoms: _569  and  _570
REMARK  226  A    between atoms: _569  and  _572
REMARK  227  A    between atoms: _572  and  _573
REMARK  228  A    between atoms: _573  and  _574
REMARK  229  A    between atoms: _574  and  _575
REMARK  230  A    between atoms: _584  and  _586
REMARK  231  A    between atoms: _586  and  _587
REMARK  232  A    between atoms: _586  and  _589
REMARK  233  A    between atoms: _589  and  _590
REMARK  234  A    between atoms: _593  and  _595
REMARK  235  A    between atoms: _595  and  _596
REMARK  236  A    between atoms: _595  and  _598
REMARK  237  A    between atoms: _598  and  _599
REMARK  238  A    between atoms: _604  and  _606
REMARK  239  A    between atoms: _606  and  _607
REMARK  240  A    between atoms: _606  and  _609
REMARK  241  A    between atoms: _609  and  _610
REMARK  242  A    between atoms: _615  and  _616
REMARK  243  A    between atoms: _618  and  _620
REMARK  244  A    between atoms: _620  and  _621
REMARK  245  A    between atoms: _620  and  _623
REMARK  246  A    between atoms: _623  and  _624
REMARK  247  A    between atoms: _624  and  _625
REMARK  248  A    between atoms: _625  and  _627
REMARK  249  A    between atoms: _627  and  MG_715
REMARK  250  A    between atoms: _628  and  _630
REMARK  251  A    between atoms: _630  and  _631
REMARK  252  A    between atoms: _630  and  _633
REMARK  253  A    between atoms: _633  and  _634
REMARK  254  A    between atoms: _634  and  _635
REMARK  255  A    between atoms: _635  and  _636
REMARK  256  A    between atoms: _645  and  _647
REMARK  257  A    between atoms: _647  and  _648
REMARK  258  A    between atoms: _647  and  _650
REMARK  259  A    between atoms: _650  and  _651
REMARK  260  A    between atoms: _654  and  _656
REMARK  261  A    between atoms: _656  and  _657
REMARK  262  A    between atoms: _656  and  _659
REMARK  263  A    between atoms: _659  and  _660
REMARK  264  A    between atoms: _663  and  _665
REMARK  265  A    between atoms: _665  and  _666
REMARK  266  A    between atoms: _665  and  _668
REMARK  267  A    between atoms: _668  and  _669
REMARK  268  A    between atoms: _669  and  _670
REMARK  269  A    between atoms: _675  and  _677
REMARK  270  A    between atoms: _677  and  _678
REMARK  271  A    between atoms: _677  and  _680
REMARK  272  A    between atoms: _680  and  _681
REMARK  273  A    between atoms: _684  and  _686
REMARK  274  A    between atoms: _686  and  _687
REMARK  275  A    between atoms: _686  and  _689
REMARK  276  A    between atoms: _689  and  _690
REMARK  277  A    between atoms: _695  and  _696
REMARK  278  A    between atoms: _698  and  _700
REMARK  279  A    between atoms: _700  and  _701
REMARK  280  A    between atoms: _700  and  _703
REMARK  281  A    between atoms: _703  and  _704
REMARK  282  A    between atoms: _704  and  _705
REMARK  283  A    between atoms: _705  and  _706
REMARK                            x       y       z     vdW  Elec       q    Type
REMARK                         _______ _______ _______ _____ _____    ______ ____
ROOT
ATOM      1  O   HOH     1      29.854   7.562   7.501  0.00  0.00    +0.000 OA
ENDROOT
TORSDOF 0
REMARK  Name = ../refined-set-2016/1mrn/1mrn_pocket.pdb
REMARK  283 active torsions:
REMARK  status: ('A' for Active; 'I' for Inactive)
REMARK    1  A    between atoms: _1  and  _3
REMARK    2  A    between atoms: _3  and  _4
REMARK    3  A    between atoms: _3  and  _6
REMARK    4  A    between atoms: _6  and  _7
REMARK    5  A    between atoms: _7  and  _8
REMARK    6  A    between atoms: _11  and  _13
REMARK    7  A    between atoms: _13  and  _14
REMARK    8  A    between atoms: _16  and  _18
REMARK    9  A    between atoms: _18  and  _19
REMARK   10  A    between atoms: _18  and  _21
REMARK   11  A    between atoms: _24  and  _26
REMARK   12  A    between atoms: _26  and  _27
REMARK   13  A    between atoms: _26  and  _29
REMARK   14  A    between atoms: _29  and  _30
REMARK   15  A    between atoms: _30  and  _31
REMARK   16  A    between atoms: _31  and  MG_715
REMARK   17  A    between atoms: _33  and  _35
REMARK   18  A    between atoms: _35  and  _36
REMARK   19  A    between atoms: _38  and  _40
REMARK   20  A    between atoms: _40  and  _41
REMARK   21  A    between atoms: _44  and  _46
REMARK   22  A    between atoms: _46  and  _47
REMARK   23  A    between atoms: _46  and  _49
REMARK   24  A    between atoms: _49  and  _50
REMARK   25  A    between atoms: _50  and  _51
REMARK   26  A    between atoms: _51  and  _52
REMARK   27  A    between atoms: _52  and  _53
REMARK   28  A    between atoms: _57  and  _59
REMARK   29  A    between atoms: _59  and  _60
REMARK   30  A    between atoms: _59  and  _62
REMARK   31  A    between atoms: _62  and  _63
REMARK   32  A    between atoms: _63  and  _64
REMARK   33  A    between atoms: _64  and  _65
REMARK   34  A    between atoms: _74  and  _76
REMARK   35  A    between atoms: _76  and  _77
REMARK   36  A    between atoms: _80  and  _82
REMARK   37  A    between atoms: _82  and  _83
REMARK   38  A    between atoms: _82  and  _85
REMARK   39  A    between atoms: _85  and  _86
REMARK   40  A    between atoms: _93  and  _94
REMARK   41  A    between atoms: _99  and  _101
REMARK   42  A    between atoms: _101  and  _102
REMARK   43  A    between atoms: _101  and  _104
REMARK   44  A    between atoms: _104  and  _105
REMARK   45  A    between atoms: _105  and  _106
REMARK   46  A    between atoms: _106  and  _107
REMARK   47  A    between atoms: _116  and  _118
REMARK   48  A    between atoms: _118  and  _119
REMARK   49  A    between atoms: _118  and  _121
REMARK   50  A    between atoms: _121  and  _122
REMARK   51  A    between atoms: _127  and  _128
REMARK   52  A    between atoms: _130  and  _132
REMARK   53  A    between atoms: _132  and  _133
REMARK   54  A    between atoms: _135  and  _137
REMARK   55  A    between atoms: _137  and  _138
REMARK   56  A    between atoms: _137  and  _140
REMARK   57  A    between atoms: _140  and  _141
REMARK   58  A    between atoms: _143  and  _145
REMARK   59  A    between atoms: _145  and  _146
REMARK   60  A    between atoms: _145  and  _148
REMARK   61  A    between atoms: _151  and  _153
REMARK   62  A    between atoms: _153  and  _154
REMARK   63  A    between atoms: _157  and  _159
REMARK   64  A    between atoms: _159  and  _160
REMARK   65  A    between atoms: _159  and  _162
REMARK   66  A    between atoms: _162  and  _163
REMARK   67  A    between atoms: _166  and  _168
REMARK   68  A    between atoms: _168  and  _169
REMARK   69  A    between atoms: _168  and  _171
REMARK   70  A    between atoms: _171  and  _172
REMARK   71  A    between atoms: _175  and  _177
REMARK   72  A    between atoms: _177  and  _178
REMARK   73  A    between atoms: _181  and  _183
REMARK   74  A    between atoms: _183  and  _184
REMARK   75  A    between atoms: _187  and  _189
REMARK   76  A    between atoms: _189  and  _190
REMARK   77  A    between atoms: _189  and  _192
REMARK   78  A    between atoms: _192  and  _193
REMARK   79  A    between atoms: _193  and  _194
REMARK   80  A    between atoms: _197  and  _199
REMARK   81  A    between atoms: _199  and  _200
REMARK   82  A    between atoms: _203  and  _205
REMARK   83  A    between atoms: _205  and  _206
REMARK   84  A    between atoms: _205  and  _208
REMARK   85  A    between atoms: _208  and  _209
REMARK   86  A    between atoms: _212  and  _214
REMARK   87  A    between atoms: _214  and  _215
REMARK   88  A    between atoms: _214  and  _217
REMARK   89  A    between atoms: _217  and  _218
REMARK   90  A    between atoms: _223  and  _225
REMARK   91  A    between atoms: _225  and  _226
REMARK   92  A    between atoms: _228  and  _230
REMARK   93  A    between atoms: _230  and  _231
REMARK   94  A    between atoms: _230  and  _233
REMARK   95  A    between atoms: _233  and  _234
REMARK   96  A    between atoms: _234  and  _235
REMARK   97  A    between atoms: _238  and  _240
REMARK   98  A    between atoms: _240  and  _241
REMARK   99  A    between atoms: _240  and  _243
REMARK  100  A    between atoms: _243  and  _244
REMARK  101  A    between atoms: _249  and  _251
REMARK  102  A    between atoms: _251  and  _252
REMARK  103  A    between atoms: _251  and  _254
REMARK  104  A    between atoms: _257  and  _259
REMARK  105  A    between atoms: _259  and  _260
REMARK  106  A    between atoms: _259  and  _262
REMARK  107  A    between atoms: _262  and  _263
REMARK  108  A    between atoms: _263  and  _264
REMARK  109  A    between atoms: _266  and  _268
REMARK  110  A    between atoms: _268  and  _269
REMARK  111  A    between atoms: _272  and  _274
REMARK  112  A    between atoms: _274  and  _275
REMARK  113  A    between atoms: _274  and  _277
REMARK  114  A    between atoms: _277  and  _278
REMARK  115  A    between atoms: _281  and  _283
REMARK  116  A    between atoms: _283  and  _284
REMARK  117  A    between atoms: _283  and  _286
REMARK  118  A    between atoms: _286  and  _287
REMARK  119  A    between atoms: _290  and  _292
REMARK  120  A    between atoms: _292  and  _293
REMARK  121  A    between atoms: _292  and  _295
REMARK  122  A    between atoms: _295  and  _296
REMARK  123  A    between atoms: _302  and  _304
REMARK  124  A    between atoms: _304  and  _305
REMARK  125  A    between atoms: _308  and  _310
REMARK  126  A    between atoms: _310  and  _311
REMARK  127  A    between atoms: _310  and  _313
REMARK  128  A    between atoms: _313  and  _314
REMARK  129  A    between atoms: _317  and  _319
REMARK  130  A    between atoms: _319  and  _320
REMARK  131  A    between atoms: _319  and  _322
REMARK  132  A    between atoms: _322  and  _323
REMARK  133  A    between atoms: _323  and  _324
REMARK  134  A    between atoms: _324  and  _325
REMARK  135  A    between atoms: _334  and  _336
REMARK  136  A    between atoms: _336  and  _337
REMARK  137  A    between atoms: _336  and  _339
REMARK  138  A    between atoms: _339  and  _340
REMARK  139  A    between atoms: _343  and  _345
REMARK  140  A    between atoms: _345  and  _346
REMARK  141  A    between atoms: _345  and  _348
REMARK  142  A    between atoms: _348  and  _349
REMARK  143  A    between atoms: _349  and  _350
REMARK  144  A    between atoms: _350  and  _351
REMARK  145  A    between atoms: _360  and  _362
REMARK  146  A    between atoms: _362  and  _363
REMARK  147  A    between atoms: _362  and  _365
REMARK  148  A    between atoms: _365  and  _366
REMARK  149  A    between atoms: _371  and  _372
REMARK  150  A    between atoms: _374  and  _376
REMARK  151  A    between atoms: _376  and  _377
REMARK  152  A    between atoms: _376  and  _379
REMARK  153  A    between atoms: _382  and  _384
REMARK  154  A    between atoms: _384  and  _385
REMARK  155  A    between atoms: _388  and  _390
REMARK  156  A    between atoms: _390  and  _391
REMARK  157  A    between atoms: _390  and  _393
REMARK  158  A    between atoms: _393  and  _394
REMARK  159  A    between atoms: _396  and  _398
REMARK  160  A    between atoms: _398  and  _399
REMARK  161  A    between atoms: _398  and  _401
REMARK  162  A    between atoms: _401  and  _402
REMARK  163  A    between atoms: _407  and  _409
REMARK  164  A    between atoms: _409  and  _410
REMARK  165  A    between atoms: _413  and  _415
REMARK  166  A    between atoms: _415  and  _416
REMARK  167  A    between atoms: _419  and  _421
REMARK  168  A    between atoms: _421  and  _422
REMARK  169  A    between atoms: _421  and  _424
REMARK  170  A    between atoms: _424  and  _425
REMARK  171  A    between atoms: _430  and  _431
REMARK  172  A    between atoms: _433  and  _435
REMARK  173  A    between atoms: _435  and  _436
REMARK  174  A    between atoms: _435  and  _438
REMARK  175  A    between atoms: _438  and  _439
REMARK  176  A    between atoms: _441  and  _443
REMARK  177  A    between atoms: _443  and  _444
REMARK  178  A    between atoms: _447  and  _449
REMARK  179  A    between atoms: _449  and  _450
REMARK  180  A    between atoms: _449  and  _452
REMARK  181  A    between atoms: _452  and  _453
REMARK  182  A    between atoms: _453  and  _454
REMARK  183  A    between atoms: _454  and  _455
REMARK  184  A    between atoms: _464  and  _466
REMARK  185  A    between atoms: _466  and  _467
REMARK  186  A    between atoms: _466  and  _469
REMARK  187  A    between atoms: _472  and  _474
REMARK  188  A    between atoms: _474  and  _475
REMARK  189  A    between atoms: _474  and  _477
REMARK  190  A    between atoms: _477  and  _478
REMARK  191  A    between atoms: _478  and  _479
REMARK  192  A    between atoms: _482  and  _484
REMARK  193  A    between atoms: _484  and  _485
REMARK  194  A    between atoms: _484  and  _487
REMARK  195  A    between atoms: _487  and  _488
REMARK  196  A    between atoms: _490  and  _492
REMARK  197  A    between atoms: _492  and  _493
REMARK  198  A    between atoms: _492  and  _495
REMARK  199  A    between atoms: _495  and  _496
REMARK  200  A    between atoms: _496  and  _497
REMARK  201  A    between atoms: _497  and  _498
REMARK  202  A    between atoms: _507  and  _509
REMARK  203  A    between atoms: _509  and  _510
REMARK  204  A    between atoms: _513  and  _515
REMARK  205  A    between atoms: _515  and  _516
REMARK  206  A    between atoms: _515  and  _518
REMARK  207  A    between atoms: _518  and  _519
REMARK  208  A    between atoms: _519  and  _520
REMARK  209  A    between atoms: _520  and  _521
REMARK  210  A    between atoms: _530  and  _532
REMARK  211  A    between atoms: _532  and  _533
REMARK  212  A    between atoms: _532  and  _535
REMARK  213  A    between atoms: _535  and  _536
REMARK  214  A    between atoms: _539  and  _541
REMARK  215  A    between atoms: _541  and  _542
REMARK  216  A    between atoms: _544  and  _546
REMARK  217  A    between atoms: _546  and  _547
REMARK  218  A    between atoms: _546  and  _549
REMARK  219  A    between atoms: _549  and  _550
REMARK  220  A    between atoms: _550  and  _551
REMARK  221  A    between atoms: _551  and  _552
REMARK  222  A    between atoms: _561  and  _563
REMARK  223  A    between atoms: _563  and  _564
REMARK  224  A    between atoms: _567  and  _569
REMARK  225  A    between atoms: _569  and  _570
REMARK  226  A    between atoms: _569  and  _572
REMARK  227  A    between atoms: _572  and  _573
REMARK  228  A    between atoms: _573  and  _574
REMARK  229  A    between atoms: _574  and  _575
REMARK  230  A    between atoms: _584  and  _586
REMARK  231  A    between atoms: _586  and  _587
REMARK  232  A    between atoms: _586  and  _589
REMARK  233  A    between atoms: _589  and  _590
REMARK  234  A    between atoms: _593  and  _595
REMARK  235  A    between atoms: _595  and  _596
REMARK  236  A    between atoms: _595  and  _598
REMARK  237  A    between atoms: _598  and  _599
REMARK  238  A    between atoms: _604  and  _606
REMARK  239  A    between atoms: _606  and  _607
REMARK  240  A    between atoms: _606  and  _609
REMARK  241  A    between atoms: _609  and  _610
REMARK  242  A    between atoms: _615  and  _616
REMARK  243  A    between atoms: _618  and  _620
REMARK  244  A    between atoms: _620  and  _621
REMARK  245  A    between atoms: _620  and  _623
REMARK  246  A    between atoms: _623  and  _624
REMARK  247  A    between atoms: _624  and  _625
REMARK  248  A    between atoms: _625  and  _627
REMARK  249  A    between atoms: _627  and  MG_715
REMARK  250  A    between atoms: _628  and  _630
REMARK  251  A    between atoms: _630  and  _631
REMARK  252  A    between atoms: _630  and  _633
REMARK  253  A    between atoms: _633  and  _634
REMARK  254  A    between atoms: _634  and  _635
REMARK  255  A    between atoms: _635  and  _636
REMARK  256  A    between atoms: _645  and  _647
REMARK  257  A    between atoms: _647  and  _648
REMARK  258  A    between atoms: _647  and  _650
REMARK  259  A    between atoms: _650  and  _651
REMARK  260  A    between atoms: _654  and  _656
REMARK  261  A    between atoms: _656  and  _657
REMARK  262  A    between atoms: _656  and  _659
REMARK  263  A    between atoms: _659  and  _660
REMARK  264  A    between atoms: _663  and  _665
REMARK  265  A    between atoms: _665  and  _666
REMARK  266  A    between atoms: _665  and  _668
REMARK  267  A    between atoms: _668  and  _669
REMARK  268  A    between atoms: _669  and  _670
REMARK  269  A    between atoms: _675  and  _677
REMARK  270  A    between atoms: _677  and  _678
REMARK  271  A    between atoms: _677  and  _680
REMARK  272  A    between atoms: _680  and  _681
REMARK  273  A    between atoms: _684  and  _686
REMARK  274  A    between atoms: _686  and  _687
REMARK  275  A    between atoms: _686  and  _689
REMARK  276  A    between atoms: _689  and  _690
REMARK  277  A    between atoms: _695  and  _696
REMARK  278  A    between atoms: _698  and  _700
REMARK  279  A    between atoms: _700  and  _701
REMARK  280  A    between atoms: _700  and  _703
REMARK  281  A    between atoms: _703  and  _704
REMARK  282  A    between atoms: _704  and  _705
REMARK  283  A    between atoms: _705  and  _706
REMARK                            x       y       z     vdW  Elec       q    Type
REMARK                         _______ _______ _______ _____ _____    ______ ____
ROOT
ATOM      1  O   HOH     1      23.554  16.037   3.255  0.00  0.00    +0.000 OA
ENDROOT
TORSDOF 0
REMARK  Name = ../refined-set-2016/1mrn/1mrn_pocket.pdb
REMARK  283 active torsions:
REMARK  status: ('A' for Active; 'I' for Inactive)
REMARK    1  A    between atoms: _1  and  _3
REMARK    2  A    between atoms: _3  and  _4
REMARK    3  A    between atoms: _3  and  _6
REMARK    4  A    between atoms: _6  and  _7
REMARK    5  A    between atoms: _7  and  _8
REMARK    6  A    between atoms: _11  and  _13
REMARK    7  A    between atoms: _13  and  _14
REMARK    8  A    between atoms: _16  and  _18
REMARK    9  A    between atoms: _18  and  _19
REMARK   10  A    between atoms: _18  and  _21
REMARK   11  A    between atoms: _24  and  _26
REMARK   12  A    between atoms: _26  and  _27
REMARK   13  A    between atoms: _26  and  _29
REMARK   14  A    between atoms: _29  and  _30
REMARK   15  A    between atoms: _30  and  _31
REMARK   16  A    between atoms: _31  and  MG_715
REMARK   17  A    between atoms: _33  and  _35
REMARK   18  A    between atoms: _35  and  _36
REMARK   19  A    between atoms: _38  and  _40
REMARK   20  A    between atoms: _40  and  _41
REMARK   21  A    between atoms: _44  and  _46
REMARK   22  A    between atoms: _46  and  _47
REMARK   23  A    between atoms: _46  and  _49
REMARK   24  A    between atoms: _49  and  _50
REMARK   25  A    between atoms: _50  and  _51
REMARK   26  A    between atoms: _51  and  _52
REMARK   27  A    between atoms: _52  and  _53
REMARK   28  A    between atoms: _57  and  _59
REMARK   29  A    between atoms: _59  and  _60
REMARK   30  A    between atoms: _59  and  _62
REMARK   31  A    between atoms: _62  and  _63
REMARK   32  A    between atoms: _63  and  _64
REMARK   33  A    between atoms: _64  and  _65
REMARK   34  A    between atoms: _74  and  _76
REMARK   35  A    between atoms: _76  and  _77
REMARK   36  A    between atoms: _80  and  _82
REMARK   37  A    between atoms: _82  and  _83
REMARK   38  A    between atoms: _82  and  _85
REMARK   39  A    between atoms: _85  and  _86
REMARK   40  A    between atoms: _93  and  _94
REMARK   41  A    between atoms: _99  and  _101
REMARK   42  A    between atoms: _101  and  _102
REMARK   43  A    between atoms: _101  and  _104
REMARK   44  A    between atoms: _104  and  _105
REMARK   45  A    between atoms: _105  and  _106
REMARK   46  A    between atoms: _106  and  _107
REMARK   47  A    between atoms: _116  and  _118
REMARK   48  A    between atoms: _118  and  _119
REMARK   49  A    between atoms: _118  and  _121
REMARK   50  A    between atoms: _121  and  _122
REMARK   51  A    between atoms: _127  and  _128
REMARK   52  A    between atoms: _130  and  _132
REMARK   53  A    between atoms: _132  and  _133
REMARK   54  A    between atoms: _135  and  _137
REMARK   55  A    between atoms: _137  and  _138
REMARK   56  A    between atoms: _137  and  _140
REMARK   57  A    between atoms: _140  and  _141
REMARK   58  A    between atoms: _143  and  _145
REMARK   59  A    between atoms: _145  and  _146
REMARK   60  A    between atoms: _145  and  _148
REMARK   61  A    between atoms: _151  and  _153
REMARK   62  A    between atoms: _153  and  _154
REMARK   63  A    between atoms: _157  and  _159
REMARK   64  A    between atoms: _159  and  _160
REMARK   65  A    between atoms: _159  and  _162
REMARK   66  A    between atoms: _162  and  _163
REMARK   67  A    between atoms: _166  and  _168
REMARK   68  A    between atoms: _168  and  _169
REMARK   69  A    between atoms: _168  and  _171
REMARK   70  A    between atoms: _171  and  _172
REMARK   71  A    between atoms: _175  and  _177
REMARK   72  A    between atoms: _177  and  _178
REMARK   73  A    between atoms: _181  and  _183
REMARK   74  A    between atoms: _183  and  _184
REMARK   75  A    between atoms: _187  and  _189
REMARK   76  A    between atoms: _189  and  _190
REMARK   77  A    between atoms: _189  and  _192
REMARK   78  A    between atoms: _192  and  _193
REMARK   79  A    between atoms: _193  and  _194
REMARK   80  A    between atoms: _197  and  _199
REMARK   81  A    between atoms: _199  and  _200
REMARK   82  A    between atoms: _203  and  _205
REMARK   83  A    between atoms: _205  and  _206
REMARK   84  A    between atoms: _205  and  _208
REMARK   85  A    between atoms: _208  and  _209
REMARK   86  A    between atoms: _212  and  _214
REMARK   87  A    between atoms: _214  and  _215
REMARK   88  A    between atoms: _214  and  _217
REMARK   89  A    between atoms: _217  and  _218
REMARK   90  A    between atoms: _223  and  _225
REMARK   91  A    between atoms: _225  and  _226
REMARK   92  A    between atoms: _228  and  _230
REMARK   93  A    between atoms: _230  and  _231
REMARK   94  A    between atoms: _230  and  _233
REMARK   95  A    between atoms: _233  and  _234
REMARK   96  A    between atoms: _234  and  _235
REMARK   97  A    between atoms: _238  and  _240
REMARK   98  A    between atoms: _240  and  _241
REMARK   99  A    between atoms: _240  and  _243
REMARK  100  A    between atoms: _243  and  _244
REMARK  101  A    between atoms: _249  and  _251
REMARK  102  A    between atoms: _251  and  _252
REMARK  103  A    between atoms: _251  and  _254
REMARK  104  A    between atoms: _257  and  _259
REMARK  105  A    between atoms: _259  and  _260
REMARK  106  A    between atoms: _259  and  _262
REMARK  107  A    between atoms: _262  and  _263
REMARK  108  A    between atoms: _263  and  _264
REMARK  109  A    between atoms: _266  and  _268
REMARK  110  A    between atoms: _268  and  _269
REMARK  111  A    between atoms: _272  and  _274
REMARK  112  A    between atoms: _274  and  _275
REMARK  113  A    between atoms: _274  and  _277
REMARK  114  A    between atoms: _277  and  _278
REMARK  115  A    between atoms: _281  and  _283
REMARK  116  A    between atoms: _283  and  _284
REMARK  117  A    between atoms: _283  and  _286
REMARK  118  A    between atoms: _286  and  _287
REMARK  119  A    between atoms: _290  and  _292
REMARK  120  A    between atoms: _292  and  _293
REMARK  121  A    between atoms: _292  and  _295
REMARK  122  A    between atoms: _295  and  _296
REMARK  123  A    between atoms: _302  and  _304
REMARK  124  A    between atoms: _304  and  _305
REMARK  125  A    between atoms: _308  and  _310
REMARK  126  A    between atoms: _310  and  _311
REMARK  127  A    between atoms: _310  and  _313
REMARK  128  A    between atoms: _313  and  _314
REMARK  129  A    between atoms: _317  and  _319
REMARK  130  A    between atoms: _319  and  _320
REMARK  131  A    between atoms: _319  and  _322
REMARK  132  A    between atoms: _322  and  _323
REMARK  133  A    between atoms: _323  and  _324
REMARK  134  A    between atoms: _324  and  _325
REMARK  135  A    between atoms: _334  and  _336
REMARK  136  A    between atoms: _336  and  _337
REMARK  137  A    between atoms: _336  and  _339
REMARK  138  A    between atoms: _339  and  _340
REMARK  139  A    between atoms: _343  and  _345
REMARK  140  A    between atoms: _345  and  _346
REMARK  141  A    between atoms: _345  and  _348
REMARK  142  A    between atoms: _348  and  _349
REMARK  143  A    between atoms: _349  and  _350
REMARK  144  A    between atoms: _350  and  _351
REMARK  145  A    between atoms: _360  and  _362
REMARK  146  A    between atoms: _362  and  _363
REMARK  147  A    between atoms: _362  and  _365
REMARK  148  A    between atoms: _365  and  _366
REMARK  149  A    between atoms: _371  and  _372
REMARK  150  A    between atoms: _374  and  _376
REMARK  151  A    between atoms: _376  and  _377
REMARK  152  A    between atoms: _376  and  _379
REMARK  153  A    between atoms: _382  and  _384
REMARK  154  A    between atoms: _384  and  _385
REMARK  155  A    between atoms: _388  and  _390
REMARK  156  A    between atoms: _390  and  _391
REMARK  157  A    between atoms: _390  and  _393
REMARK  158  A    between atoms: _393  and  _394
REMARK  159  A    between atoms: _396  and  _398
REMARK  160  A    between atoms: _398  and  _399
REMARK  161  A    between atoms: _398  and  _401
REMARK  162  A    between atoms: _401  and  _402
REMARK  163  A    between atoms: _407  and  _409
REMARK  164  A    between atoms: _409  and  _410
REMARK  165  A    between atoms: _413  and  _415
REMARK  166  A    between atoms: _415  and  _416
REMARK  167  A    between atoms: _419  and  _421
REMARK  168  A    between atoms: _421  and  _422
REMARK  169  A    between atoms: _421  and  _424
REMARK  170  A    between atoms: _424  and  _425
REMARK  171  A    between atoms: _430  and  _431
REMARK  172  A    between atoms: _433  and  _435
REMARK  173  A    between atoms: _435  and  _436
REMARK  174  A    between atoms: _435  and  _438
REMARK  175  A    between atoms: _438  and  _439
REMARK  176  A    between atoms: _441  and  _443
REMARK  177  A    between atoms: _443  and  _444
REMARK  178  A    between atoms: _447  and  _449
REMARK  179  A    between atoms: _449  and  _450
REMARK  180  A    between atoms: _449  and  _452
REMARK  181  A    between atoms: _452  and  _453
REMARK  182  A    between atoms: _453  and  _454
REMARK  183  A    between atoms: _454  and  _455
REMARK  184  A    between atoms: _464  and  _466
REMARK  185  A    between atoms: _466  and  _467
REMARK  186  A    between atoms: _466  and  _469
REMARK  187  A    between atoms: _472  and  _474
REMARK  188  A    between atoms: _474  and  _475
REMARK  189  A    between atoms: _474  and  _477
REMARK  190  A    between atoms: _477  and  _478
REMARK  191  A    between atoms: _478  and  _479
REMARK  192  A    between atoms: _482  and  _484
REMARK  193  A    between atoms: _484  and  _485
REMARK  194  A    between atoms: _484  and  _487
REMARK  195  A    between atoms: _487  and  _488
REMARK  196  A    between atoms: _490  and  _492
REMARK  197  A    between atoms: _492  and  _493
REMARK  198  A    between atoms: _492  and  _495
REMARK  199  A    between atoms: _495  and  _496
REMARK  200  A    between atoms: _496  and  _497
REMARK  201  A    between atoms: _497  and  _498
REMARK  202  A    between atoms: _507  and  _509
REMARK  203  A    between atoms: _509  and  _510
REMARK  204  A    between atoms: _513  and  _515
REMARK  205  A    between atoms: _515  and  _516
REMARK  206  A    between atoms: _515  and  _518
REMARK  207  A    between atoms: _518  and  _519
REMARK  208  A    between atoms: _519  and  _520
REMARK  209  A    between atoms: _520  and  _521
REMARK  210  A    between atoms: _530  and  _532
REMARK  211  A    between atoms: _532  and  _533
REMARK  212  A    between atoms: _532  and  _535
REMARK  213  A    between atoms: _535  and  _536
REMARK  214  A    between atoms: _539  and  _541
REMARK  215  A    between atoms: _541  and  _542
REMARK  216  A    between atoms: _544  and  _546
REMARK  217  A    between atoms: _546  and  _547
REMARK  218  A    between atoms: _546  and  _549
REMARK  219  A    between atoms: _549  and  _550
REMARK  220  A    between atoms: _550  and  _551
REMARK  221  A    between atoms: _551  and  _552
REMARK  222  A    between atoms: _561  and  _563
REMARK  223  A    between atoms: _563  and  _564
REMARK  224  A    between atoms: _567  and  _569
REMARK  225  A    between atoms: _569  and  _570
REMARK  226  A    between atoms: _569  and  _572
REMARK  227  A    between atoms: _572  and  _573
REMARK  228  A    between atoms: _573  and  _574
REMARK  229  A    between atoms: _574  and  _575
REMARK  230  A    between atoms: _584  and  _586
REMARK  231  A    between atoms: _586  and  _587
REMARK  232  A    between atoms: _586  and  _589
REMARK  233  A    between atoms: _589  and  _590
REMARK  234  A    between atoms: _593  and  _595
REMARK  235  A    between atoms: _595  and  _596
REMARK  236  A    between atoms: _595  and  _598
REMARK  237  A    between atoms: _598  and  _599
REMARK  238  A    between atoms: _604  and  _606
REMARK  239  A    between atoms: _606  and  _607
REMARK  240  A    between atoms: _606  and  _609
REMARK  241  A    between atoms: _609  and  _610
REMARK  242  A    between atoms: _615  and  _616
REMARK  243  A    between atoms: _618  and  _620
REMARK  244  A    between atoms: _620  and  _621
REMARK  245  A    between atoms: _620  and  _623
REMARK  246  A    between atoms: _623  and  _624
REMARK  247  A    between atoms: _624  and  _625
REMARK  248  A    between atoms: _625  and  _627
REMARK  249  A    between atoms: _627  and  MG_715
REMARK  250  A    between atoms: _628  and  _630
REMARK  251  A    between atoms: _630  and  _631
REMARK  252  A    between atoms: _630  and  _633
REMARK  253  A    between atoms: _633  and  _634
REMARK  254  A    between atoms: _634  and  _635
REMARK  255  A    between atoms: _635  and  _636
REMARK  256  A    between atoms: _645  and  _647
REMARK  257  A    between atoms: _647  and  _648
REMARK  258  A    between atoms: _647  and  _650
REMARK  259  A    between atoms: _650  and  _651
REMARK  260  A    between atoms: _654  and  _656
REMARK  261  A    between atoms: _656  and  _657
REMARK  262  A    between atoms: _656  and  _659
REMARK  263  A    between atoms: _659  and  _660
REMARK  264  A    between atoms: _663  and  _665
REMARK  265  A    between atoms: _665  and  _666
REMARK  266  A    between atoms: _665  and  _668
REMARK  267  A    between atoms: _668  and  _669
REMARK  268  A    between atoms: _669  and  _670
REMARK  269  A    between atoms: _675  and  _677
REMARK  270  A    between atoms: _677  and  _678
REMARK  271  A    between atoms: _677  and  _680
REMARK  272  A    between atoms: _680  and  _681
REMARK  273  A    between atoms: _684  and  _686
REMARK  274  A    between atoms: _686  and  _687
REMARK  275  A    between atoms: _686  and  _689
REMARK  276  A    between atoms: _689  and  _690
REMARK  277  A    between atoms: _695  and  _696
REMARK  278  A    between atoms: _698  and  _700
REMARK  279  A    between atoms: _700  and  _701
REMARK  280  A    between atoms: _700  and  _703
REMARK  281  A    between atoms: _703  and  _704
REMARK  282  A    between atoms: _704  and  _705
REMARK  283  A    between atoms: _705  and  _706
REMARK                            x       y       z     vdW  Elec       q    Type
REMARK                         _______ _______ _______ _____ _____    ______ ____
ROOT
ATOM      1  O   HOH     1      28.889  13.835  -3.950  0.00  0.00    +0.000 OA
ENDROOT
TORSDOF 0
REMARK  Name = ../refined-set-2016/1mrn/1mrn_pocket.pdb
REMARK  283 active torsions:
REMARK  status: ('A' for Active; 'I' for Inactive)
REMARK    1  A    between atoms: _1  and  _3
REMARK    2  A    between atoms: _3  and  _4
REMARK    3  A    between atoms: _3  and  _6
REMARK    4  A    between atoms: _6  and  _7
REMARK    5  A    between atoms: _7  and  _8
REMARK    6  A    between atoms: _11  and  _13
REMARK    7  A    between atoms: _13  and  _14
REMARK    8  A    between atoms: _16  and  _18
REMARK    9  A    between atoms: _18  and  _19
REMARK   10  A    between atoms: _18  and  _21
REMARK   11  A    between atoms: _24  and  _26
REMARK   12  A    between atoms: _26  and  _27
REMARK   13  A    between atoms: _26  and  _29
REMARK   14  A    between atoms: _29  and  _30
REMARK   15  A    between atoms: _30  and  _31
REMARK   16  A    between atoms: _31  and  MG_715
REMARK   17  A    between atoms: _33  and  _35
REMARK   18  A    between atoms: _35  and  _36
REMARK   19  A    between atoms: _38  and  _40
REMARK   20  A    between atoms: _40  and  _41
REMARK   21  A    between atoms: _44  and  _46
REMARK   22  A    between atoms: _46  and  _47
REMARK   23  A    between atoms: _46  and  _49
REMARK   24  A    between atoms: _49  and  _50
REMARK   25  A    between atoms: _50  and  _51
REMARK   26  A    between atoms: _51  and  _52
REMARK   27  A    between atoms: _52  and  _53
REMARK   28  A    between atoms: _57  and  _59
REMARK   29  A    between atoms: _59  and  _60
REMARK   30  A    between atoms: _59  and  _62
REMARK   31  A    between atoms: _62  and  _63
REMARK   32  A    between atoms: _63  and  _64
REMARK   33  A    between atoms: _64  and  _65
REMARK   34  A    between atoms: _74  and  _76
REMARK   35  A    between atoms: _76  and  _77
REMARK   36  A    between atoms: _80  and  _82
REMARK   37  A    between atoms: _82  and  _83
REMARK   38  A    between atoms: _82  and  _85
REMARK   39  A    between atoms: _85  and  _86
REMARK   40  A    between atoms: _93  and  _94
REMARK   41  A    between atoms: _99  and  _101
REMARK   42  A    between atoms: _101  and  _102
REMARK   43  A    between atoms: _101  and  _104
REMARK   44  A    between atoms: _104  and  _105
REMARK   45  A    between atoms: _105  and  _106
REMARK   46  A    between atoms: _106  and  _107
REMARK   47  A    between atoms: _116  and  _118
REMARK   48  A    between atoms: _118  and  _119
REMARK   49  A    between atoms: _118  and  _121
REMARK   50  A    between atoms: _121  and  _122
REMARK   51  A    between atoms: _127  and  _128
REMARK   52  A    between atoms: _130  and  _132
REMARK   53  A    between atoms: _132  and  _133
REMARK   54  A    between atoms: _135  and  _137
REMARK   55  A    between atoms: _137  and  _138
REMARK   56  A    between atoms: _137  and  _140
REMARK   57  A    between atoms: _140  and  _141
REMARK   58  A    between atoms: _143  and  _145
REMARK   59  A    between atoms: _145  and  _146
REMARK   60  A    between atoms: _145  and  _148
REMARK   61  A    between atoms: _151  and  _153
REMARK   62  A    between atoms: _153  and  _154
REMARK   63  A    between atoms: _157  and  _159
REMARK   64  A    between atoms: _159  and  _160
REMARK   65  A    between atoms: _159  and  _162
REMARK   66  A    between atoms: _162  and  _163
REMARK   67  A    between atoms: _166  and  _168
REMARK   68  A    between atoms: _168  and  _169
REMARK   69  A    between atoms: _168  and  _171
REMARK   70  A    between atoms: _171  and  _172
REMARK   71  A    between atoms: _175  and  _177
REMARK   72  A    between atoms: _177  and  _178
REMARK   73  A    between atoms: _181  and  _183
REMARK   74  A    between atoms: _183  and  _184
REMARK   75  A    between atoms: _187  and  _189
REMARK   76  A    between atoms: _189  and  _190
REMARK   77  A    between atoms: _189  and  _192
REMARK   78  A    between atoms: _192  and  _193
REMARK   79  A    between atoms: _193  and  _194
REMARK   80  A    between atoms: _197  and  _199
REMARK   81  A    between atoms: _199  and  _200
REMARK   82  A    between atoms: _203  and  _205
REMARK   83  A    between atoms: _205  and  _206
REMARK   84  A    between atoms: _205  and  _208
REMARK   85  A    between atoms: _208  and  _209
REMARK   86  A    between atoms: _212  and  _214
REMARK   87  A    between atoms: _214  and  _215
REMARK   88  A    between atoms: _214  and  _217
REMARK   89  A    between atoms: _217  and  _218
REMARK   90  A    between atoms: _223  and  _225
REMARK   91  A    between atoms: _225  and  _226
REMARK   92  A    between atoms: _228  and  _230
REMARK   93  A    between atoms: _230  and  _231
REMARK   94  A    between atoms: _230  and  _233
REMARK   95  A    between atoms: _233  and  _234
REMARK   96  A    between atoms: _234  and  _235
REMARK   97  A    between atoms: _238  and  _240
REMARK   98  A    between atoms: _240  and  _241
REMARK   99  A    between atoms: _240  and  _243
REMARK  100  A    between atoms: _243  and  _244
REMARK  101  A    between atoms: _249  and  _251
REMARK  102  A    between atoms: _251  and  _252
REMARK  103  A    between atoms: _251  and  _254
REMARK  104  A    between atoms: _257  and  _259
REMARK  105  A    between atoms: _259  and  _260
REMARK  106  A    between atoms: _259  and  _262
REMARK  107  A    between atoms: _262  and  _263
REMARK  108  A    between atoms: _263  and  _264
REMARK  109  A    between atoms: _266  and  _268
REMARK  110  A    between atoms: _268  and  _269
REMARK  111  A    between atoms: _272  and  _274
REMARK  112  A    between atoms: _274  and  _275
REMARK  113  A    between atoms: _274  and  _277
REMARK  114  A    between atoms: _277  and  _278
REMARK  115  A    between atoms: _281  and  _283
REMARK  116  A    between atoms: _283  and  _284
REMARK  117  A    between atoms: _283  and  _286
REMARK  118  A    between atoms: _286  and  _287
REMARK  119  A    between atoms: _290  and  _292
REMARK  120  A    between atoms: _292  and  _293
REMARK  121  A    between atoms: _292  and  _295
REMARK  122  A    between atoms: _295  and  _296
REMARK  123  A    between atoms: _302  and  _304
REMARK  124  A    between atoms: _304  and  _305
REMARK  125  A    between atoms: _308  and  _310
REMARK  126  A    between atoms: _310  and  _311
REMARK  127  A    between atoms: _310  and  _313
REMARK  128  A    between atoms: _313  and  _314
REMARK  129  A    between atoms: _317  and  _319
REMARK  130  A    between atoms: _319  and  _320
REMARK  131  A    between atoms: _319  and  _322
REMARK  132  A    between atoms: _322  and  _323
REMARK  133  A    between atoms: _323  and  _324
REMARK  134  A    between atoms: _324  and  _325
REMARK  135  A    between atoms: _334  and  _336
REMARK  136  A    between atoms: _336  and  _337
REMARK  137  A    between atoms: _336  and  _339
REMARK  138  A    between atoms: _339  and  _340
REMARK  139  A    between atoms: _343  and  _345
REMARK  140  A    between atoms: _345  and  _346
REMARK  141  A    between atoms: _345  and  _348
REMARK  142  A    between atoms: _348  and  _349
REMARK  143  A    between atoms: _349  and  _350
REMARK  144  A    between atoms: _350  and  _351
REMARK  145  A    between atoms: _360  and  _362
REMARK  146  A    between atoms: _362  and  _363
REMARK  147  A    between atoms: _362  and  _365
REMARK  148  A    between atoms: _365  and  _366
REMARK  149  A    between atoms: _371  and  _372
REMARK  150  A    between atoms: _374  and  _376
REMARK  151  A    between atoms: _376  and  _377
REMARK  152  A    between atoms: _376  and  _379
REMARK  153  A    between atoms: _382  and  _384
REMARK  154  A    between atoms: _384  and  _385
REMARK  155  A    between atoms: _388  and  _390
REMARK  156  A    between atoms: _390  and  _391
REMARK  157  A    between atoms: _390  and  _393
REMARK  158  A    between atoms: _393  and  _394
REMARK  159  A    between atoms: _396  and  _398
REMARK  160  A    between atoms: _398  and  _399
REMARK  161  A    between atoms: _398  and  _401
REMARK  162  A    between atoms: _401  and  _402
REMARK  163  A    between atoms: _407  and  _409
REMARK  164  A    between atoms: _409  and  _410
REMARK  165  A    between atoms: _413  and  _415
REMARK  166  A    between atoms: _415  and  _416
REMARK  167  A    between atoms: _419  and  _421
REMARK  168  A    between atoms: _421  and  _422
REMARK  169  A    between atoms: _421  and  _424
REMARK  170  A    between atoms: _424  and  _425
REMARK  171  A    between atoms: _430  and  _431
REMARK  172  A    between atoms: _433  and  _435
REMARK  173  A    between atoms: _435  and  _436
REMARK  174  A    between atoms: _435  and  _438
REMARK  175  A    between atoms: _438  and  _439
REMARK  176  A    between atoms: _441  and  _443
REMARK  177  A    between atoms: _443  and  _444
REMARK  178  A    between atoms: _447  and  _449
REMARK  179  A    between atoms: _449  and  _450
REMARK  180  A    between atoms: _449  and  _452
REMARK  181  A    between atoms: _452  and  _453
REMARK  182  A    between atoms: _453  and  _454
REMARK  183  A    between atoms: _454  and  _455
REMARK  184  A    between atoms: _464  and  _466
REMARK  185  A    between atoms: _466  and  _467
REMARK  186  A    between atoms: _466  and  _469
REMARK  187  A    between atoms: _472  and  _474
REMARK  188  A    between atoms: _474  and  _475
REMARK  189  A    between atoms: _474  and  _477
REMARK  190  A    between atoms: _477  and  _478
REMARK  191  A    between atoms: _478  and  _479
REMARK  192  A    between atoms: _482  and  _484
REMARK  193  A    between atoms: _484  and  _485
REMARK  194  A    between atoms: _484  and  _487
REMARK  195  A    between atoms: _487  and  _488
REMARK  196  A    between atoms: _490  and  _492
REMARK  197  A    between atoms: _492  and  _493
REMARK  198  A    between atoms: _492  and  _495
REMARK  199  A    between atoms: _495  and  _496
REMARK  200  A    between atoms: _496  and  _497
REMARK  201  A    between atoms: _497  and  _498
REMARK  202  A    between atoms: _507  and  _509
REMARK  203  A    between atoms: _509  and  _510
REMARK  204  A    between atoms: _513  and  _515
REMARK  205  A    between atoms: _515  and  _516
REMARK  206  A    between atoms: _515  and  _518
REMARK  207  A    between atoms: _518  and  _519
REMARK  208  A    between atoms: _519  and  _520
REMARK  209  A    between atoms: _520  and  _521
REMARK  210  A    between atoms: _530  and  _532
REMARK  211  A    between atoms: _532  and  _533
REMARK  212  A    between atoms: _532  and  _535
REMARK  213  A    between atoms: _535  and  _536
REMARK  214  A    between atoms: _539  and  _541
REMARK  215  A    between atoms: _541  and  _542
REMARK  216  A    between atoms: _544  and  _546
REMARK  217  A    between atoms: _546  and  _547
REMARK  218  A    between atoms: _546  and  _549
REMARK  219  A    between atoms: _549  and  _550
REMARK  220  A    between atoms: _550  and  _551
REMARK  221  A    between atoms: _551  and  _552
REMARK  222  A    between atoms: _561  and  _563
REMARK  223  A    between atoms: _563  and  _564
REMARK  224  A    between atoms: _567  and  _569
REMARK  225  A    between atoms: _569  and  _570
REMARK  226  A    between atoms: _569  and  _572
REMARK  227  A    between atoms: _572  and  _573
REMARK  228  A    between atoms: _573  and  _574
REMARK  229  A    between atoms: _574  and  _575
REMARK  230  A    between atoms: _584  and  _586
REMARK  231  A    between atoms: _586  and  _587
REMARK  232  A    between atoms: _586  and  _589
REMARK  233  A    between atoms: _589  and  _590
REMARK  234  A    between atoms: _593  and  _595
REMARK  235  A    between atoms: _595  and  _596
REMARK  236  A    between atoms: _595  and  _598
REMARK  237  A    between atoms: _598  and  _599
REMARK  238  A    between atoms: _604  and  _606
REMARK  239  A    between atoms: _606  and  _607
REMARK  240  A    between atoms: _606  and  _609
REMARK  241  A    between atoms: _609  and  _610
REMARK  242  A    between atoms: _615  and  _616
REMARK  243  A    between atoms: _618  and  _620
REMARK  244  A    between atoms: _620  and  _621
REMARK  245  A    between atoms: _620  and  _623
REMARK  246  A    between atoms: _623  and  _624
REMARK  247  A    between atoms: _624  and  _625
REMARK  248  A    between atoms: _625  and  _627
REMARK  249  A    between atoms: _627  and  MG_715
REMARK  250  A    between atoms: _628  and  _630
REMARK  251  A    between atoms: _630  and  _631
REMARK  252  A    between atoms: _630  and  _633
REMARK  253  A    between atoms: _633  and  _634
REMARK  254  A    between atoms: _634  and  _635
REMARK  255  A    between atoms: _635  and  _636
REMARK  256  A    between atoms: _645  and  _647
REMARK  257  A    between atoms: _647  and  _648
REMARK  258  A    between atoms: _647  and  _650
REMARK  259  A    between atoms: _650  and  _651
REMARK  260  A    between atoms: _654  and  _656
REMARK  261  A    between atoms: _656  and  _657
REMARK  262  A    between atoms: _656  and  _659
REMARK  263  A    between atoms: _659  and  _660
REMARK  264  A    between atoms: _663  and  _665
REMARK  265  A    between atoms: _665  and  _666
REMARK  266  A    between atoms: _665  and  _668
REMARK  267  A    between atoms: _668  and  _669
REMARK  268  A    between atoms: _669  and  _670
REMARK  269  A    between atoms: _675  and  _677
REMARK  270  A    between atoms: _677  and  _678
REMARK  271  A    between atoms: _677  and  _680
REMARK  272  A    between atoms: _680  and  _681
REMARK  273  A    between atoms: _684  and  _686
REMARK  274  A    between atoms: _686  and  _687
REMARK  275  A    between atoms: _686  and  _689
REMARK  276  A    between atoms: _689  and  _690
REMARK  277  A    between atoms: _695  and  _696
REMARK  278  A    between atoms: _698  and  _700
REMARK  279  A    between atoms: _700  and  _701
REMARK  280  A    between atoms: _700  and  _703
REMARK  281  A    between atoms: _703  and  _704
REMARK  282  A    between atoms: _704  and  _705
REMARK  283  A    between atoms: _705  and  _706
REMARK                            x       y       z     vdW  Elec       q    Type
REMARK                         _______ _______ _______ _____ _____    ______ ____
ROOT
ATOM      1  O   HOH     1      28.452  23.338  14.107  0.00  0.00    +0.000 OA
ENDROOT
TORSDOF 0
REMARK  Name = ../refined-set-2016/1mrn/1mrn_pocket.pdb
REMARK  283 active torsions:
REMARK  status: ('A' for Active; 'I' for Inactive)
REMARK    1  A    between atoms: _1  and  _3
REMARK    2  A    between atoms: _3  and  _4
REMARK    3  A    between atoms: _3  and  _6
REMARK    4  A    between atoms: _6  and  _7
REMARK    5  A    between atoms: _7  and  _8
REMARK    6  A    between atoms: _11  and  _13
REMARK    7  A    between atoms: _13  and  _14
REMARK    8  A    between atoms: _16  and  _18
REMARK    9  A    between atoms: _18  and  _19
REMARK   10  A    between atoms: _18  and  _21
REMARK   11  A    between atoms: _24  and  _26
REMARK   12  A    between atoms: _26  and  _27
REMARK   13  A    between atoms: _26  and  _29
REMARK   14  A    between atoms: _29  and  _30
REMARK   15  A    between atoms: _30  and  _31
REMARK   16  A    between atoms: _31  and  MG_715
REMARK   17  A    between atoms: _33  and  _35
REMARK   18  A    between atoms: _35  and  _36
REMARK   19  A    between atoms: _38  and  _40
REMARK   20  A    between atoms: _40  and  _41
REMARK   21  A    between atoms: _44  and  _46
REMARK   22  A    between atoms: _46  and  _47
REMARK   23  A    between atoms: _46  and  _49
REMARK   24  A    between atoms: _49  and  _50
REMARK   25  A    between atoms: _50  and  _51
REMARK   26  A    between atoms: _51  and  _52
REMARK   27  A    between atoms: _52  and  _53
REMARK   28  A    between atoms: _57  and  _59
REMARK   29  A    between atoms: _59  and  _60
REMARK   30  A    between atoms: _59  and  _62
REMARK   31  A    between atoms: _62  and  _63
REMARK   32  A    between atoms: _63  and  _64
REMARK   33  A    between atoms: _64  and  _65
REMARK   34  A    between atoms: _74  and  _76
REMARK   35  A    between atoms: _76  and  _77
REMARK   36  A    between atoms: _80  and  _82
REMARK   37  A    between atoms: _82  and  _83
REMARK   38  A    between atoms: _82  and  _85
REMARK   39  A    between atoms: _85  and  _86
REMARK   40  A    between atoms: _93  and  _94
REMARK   41  A    between atoms: _99  and  _101
REMARK   42  A    between atoms: _101  and  _102
REMARK   43  A    between atoms: _101  and  _104
REMARK   44  A    between atoms: _104  and  _105
REMARK   45  A    between atoms: _105  and  _106
REMARK   46  A    between atoms: _106  and  _107
REMARK   47  A    between atoms: _116  and  _118
REMARK   48  A    between atoms: _118  and  _119
REMARK   49  A    between atoms: _118  and  _121
REMARK   50  A    between atoms: _121  and  _122
REMARK   51  A    between atoms: _127  and  _128
REMARK   52  A    between atoms: _130  and  _132
REMARK   53  A    between atoms: _132  and  _133
REMARK   54  A    between atoms: _135  and  _137
REMARK   55  A    between atoms: _137  and  _138
REMARK   56  A    between atoms: _137  and  _140
REMARK   57  A    between atoms: _140  and  _141
REMARK   58  A    between atoms: _143  and  _145
REMARK   59  A    between atoms: _145  and  _146
REMARK   60  A    between atoms: _145  and  _148
REMARK   61  A    between atoms: _151  and  _153
REMARK   62  A    between atoms: _153  and  _154
REMARK   63  A    between atoms: _157  and  _159
REMARK   64  A    between atoms: _159  and  _160
REMARK   65  A    between atoms: _159  and  _162
REMARK   66  A    between atoms: _162  and  _163
REMARK   67  A    between atoms: _166  and  _168
REMARK   68  A    between atoms: _168  and  _169
REMARK   69  A    between atoms: _168  and  _171
REMARK   70  A    between atoms: _171  and  _172
REMARK   71  A    between atoms: _175  and  _177
REMARK   72  A    between atoms: _177  and  _178
REMARK   73  A    between atoms: _181  and  _183
REMARK   74  A    between atoms: _183  and  _184
REMARK   75  A    between atoms: _187  and  _189
REMARK   76  A    between atoms: _189  and  _190
REMARK   77  A    between atoms: _189  and  _192
REMARK   78  A    between atoms: _192  and  _193
REMARK   79  A    between atoms: _193  and  _194
REMARK   80  A    between atoms: _197  and  _199
REMARK   81  A    between atoms: _199  and  _200
REMARK   82  A    between atoms: _203  and  _205
REMARK   83  A    between atoms: _205  and  _206
REMARK   84  A    between atoms: _205  and  _208
REMARK   85  A    between atoms: _208  and  _209
REMARK   86  A    between atoms: _212  and  _214
REMARK   87  A    between atoms: _214  and  _215
REMARK   88  A    between atoms: _214  and  _217
REMARK   89  A    between atoms: _217  and  _218
REMARK   90  A    between atoms: _223  and  _225
REMARK   91  A    between atoms: _225  and  _226
REMARK   92  A    between atoms: _228  and  _230
REMARK   93  A    between atoms: _230  and  _231
REMARK   94  A    between atoms: _230  and  _233
REMARK   95  A    between atoms: _233  and  _234
REMARK   96  A    between atoms: _234  and  _235
REMARK   97  A    between atoms: _238  and  _240
REMARK   98  A    between atoms: _240  and  _241
REMARK   99  A    between atoms: _240  and  _243
REMARK  100  A    between atoms: _243  and  _244
REMARK  101  A    between atoms: _249  and  _251
REMARK  102  A    between atoms: _251  and  _252
REMARK  103  A    between atoms: _251  and  _254
REMARK  104  A    between atoms: _257  and  _259
REMARK  105  A    between atoms: _259  and  _260
REMARK  106  A    between atoms: _259  and  _262
REMARK  107  A    between atoms: _262  and  _263
REMARK  108  A    between atoms: _263  and  _264
REMARK  109  A    between atoms: _266  and  _268
REMARK  110  A    between atoms: _268  and  _269
REMARK  111  A    between atoms: _272  and  _274
REMARK  112  A    between atoms: _274  and  _275
REMARK  113  A    between atoms: _274  and  _277
REMARK  114  A    between atoms: _277  and  _278
REMARK  115  A    between atoms: _281  and  _283
REMARK  116  A    between atoms: _283  and  _284
REMARK  117  A    between atoms: _283  and  _286
REMARK  118  A    between atoms: _286  and  _287
REMARK  119  A    between atoms: _290  and  _292
REMARK  120  A    between atoms: _292  and  _293
REMARK  121  A    between atoms: _292  and  _295
REMARK  122  A    between atoms: _295  and  _296
REMARK  123  A    between atoms: _302  and  _304
REMARK  124  A    between atoms: _304  and  _305
REMARK  125  A    between atoms: _308  and  _310
REMARK  126  A    between atoms: _310  and  _311
REMARK  127  A    between atoms: _310  and  _313
REMARK  128  A    between atoms: _313  and  _314
REMARK  129  A    between atoms: _317  and  _319
REMARK  130  A    between atoms: _319  and  _320
REMARK  131  A    between atoms: _319  and  _322
REMARK  132  A    between atoms: _322  and  _323
REMARK  133  A    between atoms: _323  and  _324
REMARK  134  A    between atoms: _324  and  _325
REMARK  135  A    between atoms: _334  and  _336
REMARK  136  A    between atoms: _336  and  _337
REMARK  137  A    between atoms: _336  and  _339
REMARK  138  A    between atoms: _339  and  _340
REMARK  139  A    between atoms: _343  and  _345
REMARK  140  A    between atoms: _345  and  _346
REMARK  141  A    between atoms: _345  and  _348
REMARK  142  A    between atoms: _348  and  _349
REMARK  143  A    between atoms: _349  and  _350
REMARK  144  A    between atoms: _350  and  _351
REMARK  145  A    between atoms: _360  and  _362
REMARK  146  A    between atoms: _362  and  _363
REMARK  147  A    between atoms: _362  and  _365
REMARK  148  A    between atoms: _365  and  _366
REMARK  149  A    between atoms: _371  and  _372
REMARK  150  A    between atoms: _374  and  _376
REMARK  151  A    between atoms: _376  and  _377
REMARK  152  A    between atoms: _376  and  _379
REMARK  153  A    between atoms: _382  and  _384
REMARK  154  A    between atoms: _384  and  _385
REMARK  155  A    between atoms: _388  and  _390
REMARK  156  A    between atoms: _390  and  _391
REMARK  157  A    between atoms: _390  and  _393
REMARK  158  A    between atoms: _393  and  _394
REMARK  159  A    between atoms: _396  and  _398
REMARK  160  A    between atoms: _398  and  _399
REMARK  161  A    between atoms: _398  and  _401
REMARK  162  A    between atoms: _401  and  _402
REMARK  163  A    between atoms: _407  and  _409
REMARK  164  A    between atoms: _409  and  _410
REMARK  165  A    between atoms: _413  and  _415
REMARK  166  A    between atoms: _415  and  _416
REMARK  167  A    between atoms: _419  and  _421
REMARK  168  A    between atoms: _421  and  _422
REMARK  169  A    between atoms: _421  and  _424
REMARK  170  A    between atoms: _424  and  _425
REMARK  171  A    between atoms: _430  and  _431
REMARK  172  A    between atoms: _433  and  _435
REMARK  173  A    between atoms: _435  and  _436
REMARK  174  A    between atoms: _435  and  _438
REMARK  175  A    between atoms: _438  and  _439
REMARK  176  A    between atoms: _441  and  _443
REMARK  177  A    between atoms: _443  and  _444
REMARK  178  A    between atoms: _447  and  _449
REMARK  179  A    between atoms: _449  and  _450
REMARK  180  A    between atoms: _449  and  _452
REMARK  181  A    between atoms: _452  and  _453
REMARK  182  A    between atoms: _453  and  _454
REMARK  183  A    between atoms: _454  and  _455
REMARK  184  A    between atoms: _464  and  _466
REMARK  185  A    between atoms: _466  and  _467
REMARK  186  A    between atoms: _466  and  _469
REMARK  187  A    between atoms: _472  and  _474
REMARK  188  A    between atoms: _474  and  _475
REMARK  189  A    between atoms: _474  and  _477
REMARK  190  A    between atoms: _477  and  _478
REMARK  191  A    between atoms: _478  and  _479
REMARK  192  A    between atoms: _482  and  _484
REMARK  193  A    between atoms: _484  and  _485
REMARK  194  A    between atoms: _484  and  _487
REMARK  195  A    between atoms: _487  and  _488
REMARK  196  A    between atoms: _490  and  _492
REMARK  197  A    between atoms: _492  and  _493
REMARK  198  A    between atoms: _492  and  _495
REMARK  199  A    between atoms: _495  and  _496
REMARK  200  A    between atoms: _496  and  _497
REMARK  201  A    between atoms: _497  and  _498
REMARK  202  A    between atoms: _507  and  _509
REMARK  203  A    between atoms: _509  and  _510
REMARK  204  A    between atoms: _513  and  _515
REMARK  205  A    between atoms: _515  and  _516
REMARK  206  A    between atoms: _515  and  _518
REMARK  207  A    between atoms: _518  and  _519
REMARK  208  A    between atoms: _519  and  _520
REMARK  209  A    between atoms: _520  and  _521
REMARK  210  A    between atoms: _530  and  _532
REMARK  211  A    between atoms: _532  and  _533
REMARK  212  A    between atoms: _532  and  _535
REMARK  213  A    between atoms: _535  and  _536
REMARK  214  A    between atoms: _539  and  _541
REMARK  215  A    between atoms: _541  and  _542
REMARK  216  A    between atoms: _544  and  _546
REMARK  217  A    between atoms: _546  and  _547
REMARK  218  A    between atoms: _546  and  _549
REMARK  219  A    between atoms: _549  and  _550
REMARK  220  A    between atoms: _550  and  _551
REMARK  221  A    between atoms: _551  and  _552
REMARK  222  A    between atoms: _561  and  _563
REMARK  223  A    between atoms: _563  and  _564
REMARK  224  A    between atoms: _567  and  _569
REMARK  225  A    between atoms: _569  and  _570
REMARK  226  A    between atoms: _569  and  _572
REMARK  227  A    between atoms: _572  and  _573
REMARK  228  A    between atoms: _573  and  _574
REMARK  229  A    between atoms: _574  and  _575
REMARK  230  A    between atoms: _584  and  _586
REMARK  231  A    between atoms: _586  and  _587
REMARK  232  A    between atoms: _586  and  _589
REMARK  233  A    between atoms: _589  and  _590
REMARK  234  A    between atoms: _593  and  _595
REMARK  235  A    between atoms: _595  and  _596
REMARK  236  A    between atoms: _595  and  _598
REMARK  237  A    between atoms: _598  and  _599
REMARK  238  A    between atoms: _604  and  _606
REMARK  239  A    between atoms: _606  and  _607
REMARK  240  A    between atoms: _606  and  _609
REMARK  241  A    between atoms: _609  and  _610
REMARK  242  A    between atoms: _615  and  _616
REMARK  243  A    between atoms: _618  and  _620
REMARK  244  A    between atoms: _620  and  _621
REMARK  245  A    between atoms: _620  and  _623
REMARK  246  A    between atoms: _623  and  _624
REMARK  247  A    between atoms: _624  and  _625
REMARK  248  A    between atoms: _625  and  _627
REMARK  249  A    between atoms: _627  and  MG_715
REMARK  250  A    between atoms: _628  and  _630
REMARK  251  A    between atoms: _630  and  _631
REMARK  252  A    between atoms: _630  and  _633
REMARK  253  A    between atoms: _633  and  _634
REMARK  254  A    between atoms: _634  and  _635
REMARK  255  A    between atoms: _635  and  _636
REMARK  256  A    between atoms: _645  and  _647
REMARK  257  A    between atoms: _647  and  _648
REMARK  258  A    between atoms: _647  and  _650
REMARK  259  A    between atoms: _650  and  _651
REMARK  260  A    between atoms: _654  and  _656
REMARK  261  A    between atoms: _656  and  _657
REMARK  262  A    between atoms: _656  and  _659
REMARK  263  A    between atoms: _659  and  _660
REMARK  264  A    between atoms: _663  and  _665
REMARK  265  A    between atoms: _665  and  _666
REMARK  266  A    between atoms: _665  and  _668
REMARK  267  A    between atoms: _668  and  _669
REMARK  268  A    between atoms: _669  and  _670
REMARK  269  A    between atoms: _675  and  _677
REMARK  270  A    between atoms: _677  and  _678
REMARK  271  A    between atoms: _677  and  _680
REMARK  272  A    between atoms: _680  and  _681
REMARK  273  A    between atoms: _684  and  _686
REMARK  274  A    between atoms: _686  and  _687
REMARK  275  A    between atoms: _686  and  _689
REMARK  276  A    between atoms: _689  and  _690
REMARK  277  A    between atoms: _695  and  _696
REMARK  278  A    between atoms: _698  and  _700
REMARK  279  A    between atoms: _700  and  _701
REMARK  280  A    between atoms: _700  and  _703
REMARK  281  A    between atoms: _703  and  _704
REMARK  282  A    between atoms: _704  and  _705
REMARK  283  A    between atoms: _705  and  _706
REMARK                            x       y       z     vdW  Elec       q    Type
REMARK                         _______ _______ _______ _____ _____    ______ ____
ROOT
ATOM      1  O   HOH     1      21.206   6.293   7.337  0.00  0.00    +0.000 OA
ENDROOT
TORSDOF 0
REMARK  Name = ../refined-set-2016/1mrn/1mrn_pocket.pdb
REMARK  283 active torsions:
REMARK  status: ('A' for Active; 'I' for Inactive)
REMARK    1  A    between atoms: _1  and  _3
REMARK    2  A    between atoms: _3  and  _4
REMARK    3  A    between atoms: _3  and  _6
REMARK    4  A    between atoms: _6  and  _7
REMARK    5  A    between atoms: _7  and  _8
REMARK    6  A    between atoms: _11  and  _13
REMARK    7  A    between atoms: _13  and  _14
REMARK    8  A    between atoms: _16  and  _18
REMARK    9  A    between atoms: _18  and  _19
REMARK   10  A    between atoms: _18  and  _21
REMARK   11  A    between atoms: _24  and  _26
REMARK   12  A    between atoms: _26  and  _27
REMARK   13  A    between atoms: _26  and  _29
REMARK   14  A    between atoms: _29  and  _30
REMARK   15  A    between atoms: _30  and  _31
REMARK   16  A    between atoms: _31  and  MG_715
REMARK   17  A    between atoms: _33  and  _35
REMARK   18  A    between atoms: _35  and  _36
REMARK   19  A    between atoms: _38  and  _40
REMARK   20  A    between atoms: _40  and  _41
REMARK   21  A    between atoms: _44  and  _46
REMARK   22  A    between atoms: _46  and  _47
REMARK   23  A    between atoms: _46  and  _49
REMARK   24  A    between atoms: _49  and  _50
REMARK   25  A    between atoms: _50  and  _51
REMARK   26  A    between atoms: _51  and  _52
REMARK   27  A    between atoms: _52  and  _53
REMARK   28  A    between atoms: _57  and  _59
REMARK   29  A    between atoms: _59  and  _60
REMARK   30  A    between atoms: _59  and  _62
REMARK   31  A    between atoms: _62  and  _63
REMARK   32  A    between atoms: _63  and  _64
REMARK   33  A    between atoms: _64  and  _65
REMARK   34  A    between atoms: _74  and  _76
REMARK   35  A    between atoms: _76  and  _77
REMARK   36  A    between atoms: _80  and  _82
REMARK   37  A    between atoms: _82  and  _83
REMARK   38  A    between atoms: _82  and  _85
REMARK   39  A    between atoms: _85  and  _86
REMARK   40  A    between atoms: _93  and  _94
REMARK   41  A    between atoms: _99  and  _101
REMARK   42  A    between atoms: _101  and  _102
REMARK   43  A    between atoms: _101  and  _104
REMARK   44  A    between atoms: _104  and  _105
REMARK   45  A    between atoms: _105  and  _106
REMARK   46  A    between atoms: _106  and  _107
REMARK   47  A    between atoms: _116  and  _118
REMARK   48  A    between atoms: _118  and  _119
REMARK   49  A    between atoms: _118  and  _121
REMARK   50  A    between atoms: _121  and  _122
REMARK   51  A    between atoms: _127  and  _128
REMARK   52  A    between atoms: _130  and  _132
REMARK   53  A    between atoms: _132  and  _133
REMARK   54  A    between atoms: _135  and  _137
REMARK   55  A    between atoms: _137  and  _138
REMARK   56  A    between atoms: _137  and  _140
REMARK   57  A    between atoms: _140  and  _141
REMARK   58  A    between atoms: _143  and  _145
REMARK   59  A    between atoms: _145  and  _146
REMARK   60  A    between atoms: _145  and  _148
REMARK   61  A    between atoms: _151  and  _153
REMARK   62  A    between atoms: _153  and  _154
REMARK   63  A    between atoms: _157  and  _159
REMARK   64  A    between atoms: _159  and  _160
REMARK   65  A    between atoms: _159  and  _162
REMARK   66  A    between atoms: _162  and  _163
REMARK   67  A    between atoms: _166  and  _168
REMARK   68  A    between atoms: _168  and  _169
REMARK   69  A    between atoms: _168  and  _171
REMARK   70  A    between atoms: _171  and  _172
REMARK   71  A    between atoms: _175  and  _177
REMARK   72  A    between atoms: _177  and  _178
REMARK   73  A    between atoms: _181  and  _183
REMARK   74  A    between atoms: _183  and  _184
REMARK   75  A    between atoms: _187  and  _189
REMARK   76  A    between atoms: _189  and  _190
REMARK   77  A    between atoms: _189  and  _192
REMARK   78  A    between atoms: _192  and  _193
REMARK   79  A    between atoms: _193  and  _194
REMARK   80  A    between atoms: _197  and  _199
REMARK   81  A    between atoms: _199  and  _200
REMARK   82  A    between atoms: _203  and  _205
REMARK   83  A    between atoms: _205  and  _206
REMARK   84  A    between atoms: _205  and  _208
REMARK   85  A    between atoms: _208  and  _209
REMARK   86  A    between atoms: _212  and  _214
REMARK   87  A    between atoms: _214  and  _215
REMARK   88  A    between atoms: _214  and  _217
REMARK   89  A    between atoms: _217  and  _218
REMARK   90  A    between atoms: _223  and  _225
REMARK   91  A    between atoms: _225  and  _226
REMARK   92  A    between atoms: _228  and  _230
REMARK   93  A    between atoms: _230  and  _231
REMARK   94  A    between atoms: _230  and  _233
REMARK   95  A    between atoms: _233  and  _234
REMARK   96  A    between atoms: _234  and  _235
REMARK   97  A    between atoms: _238  and  _240
REMARK   98  A    between atoms: _240  and  _241
REMARK   99  A    between atoms: _240  and  _243
REMARK  100  A    between atoms: _243  and  _244
REMARK  101  A    between atoms: _249  and  _251
REMARK  102  A    between atoms: _251  and  _252
REMARK  103  A    between atoms: _251  and  _254
REMARK  104  A    between atoms: _257  and  _259
REMARK  105  A    between atoms: _259  and  _260
REMARK  106  A    between atoms: _259  and  _262
REMARK  107  A    between atoms: _262  and  _263
REMARK  108  A    between atoms: _263  and  _264
REMARK  109  A    between atoms: _266  and  _268
REMARK  110  A    between atoms: _268  and  _269
REMARK  111  A    between atoms: _272  and  _274
REMARK  112  A    between atoms: _274  and  _275
REMARK  113  A    between atoms: _274  and  _277
REMARK  114  A    between atoms: _277  and  _278
REMARK  115  A    between atoms: _281  and  _283
REMARK  116  A    between atoms: _283  and  _284
REMARK  117  A    between atoms: _283  and  _286
REMARK  118  A    between atoms: _286  and  _287
REMARK  119  A    between atoms: _290  and  _292
REMARK  120  A    between atoms: _292  and  _293
REMARK  121  A    between atoms: _292  and  _295
REMARK  122  A    between atoms: _295  and  _296
REMARK  123  A    between atoms: _302  and  _304
REMARK  124  A    between atoms: _304  and  _305
REMARK  125  A    between atoms: _308  and  _310
REMARK  126  A    between atoms: _310  and  _311
REMARK  127  A    between atoms: _310  and  _313
REMARK  128  A    between atoms: _313  and  _314
REMARK  129  A    between atoms: _317  and  _319
REMARK  130  A    between atoms: _319  and  _320
REMARK  131  A    between atoms: _319  and  _322
REMARK  132  A    between atoms: _322  and  _323
REMARK  133  A    between atoms: _323  and  _324
REMARK  134  A    between atoms: _324  and  _325
REMARK  135  A    between atoms: _334  and  _336
REMARK  136  A    between atoms: _336  and  _337
REMARK  137  A    between atoms: _336  and  _339
REMARK  138  A    between atoms: _339  and  _340
REMARK  139  A    between atoms: _343  and  _345
REMARK  140  A    between atoms: _345  and  _346
REMARK  141  A    between atoms: _345  and  _348
REMARK  142  A    between atoms: _348  and  _349
REMARK  143  A    between atoms: _349  and  _350
REMARK  144  A    between atoms: _350  and  _351
REMARK  145  A    between atoms: _360  and  _362
REMARK  146  A    between atoms: _362  and  _363
REMARK  147  A    between atoms: _362  and  _365
REMARK  148  A    between atoms: _365  and  _366
REMARK  149  A    between atoms: _371  and  _372
REMARK  150  A    between atoms: _374  and  _376
REMARK  151  A    between atoms: _376  and  _377
REMARK  152  A    between atoms: _376  and  _379
REMARK  153  A    between atoms: _382  and  _384
REMARK  154  A    between atoms: _384  and  _385
REMARK  155  A    between atoms: _388  and  _390
REMARK  156  A    between atoms: _390  and  _391
REMARK  157  A    between atoms: _390  and  _393
REMARK  158  A    between atoms: _393  and  _394
REMARK  159  A    between atoms: _396  and  _398
REMARK  160  A    between atoms: _398  and  _399
REMARK  161  A    between atoms: _398  and  _401
REMARK  162  A    between atoms: _401  and  _402
REMARK  163  A    between atoms: _407  and  _409
REMARK  164  A    between atoms: _409  and  _410
REMARK  165  A    between atoms: _413  and  _415
REMARK  166  A    between atoms: _415  and  _416
REMARK  167  A    between atoms: _419  and  _421
REMARK  168  A    between atoms: _421  and  _422
REMARK  169  A    between atoms: _421  and  _424
REMARK  170  A    between atoms: _424  and  _425
REMARK  171  A    between atoms: _430  and  _431
REMARK  172  A    between atoms: _433  and  _435
REMARK  173  A    between atoms: _435  and  _436
REMARK  174  A    between atoms: _435  and  _438
REMARK  175  A    between atoms: _438  and  _439
REMARK  176  A    between atoms: _441  and  _443
REMARK  177  A    between atoms: _443  and  _444
REMARK  178  A    between atoms: _447  and  _449
REMARK  179  A    between atoms: _449  and  _450
REMARK  180  A    between atoms: _449  and  _452
REMARK  181  A    between atoms: _452  and  _453
REMARK  182  A    between atoms: _453  and  _454
REMARK  183  A    between atoms: _454  and  _455
REMARK  184  A    between atoms: _464  and  _466
REMARK  185  A    between atoms: _466  and  _467
REMARK  186  A    between atoms: _466  and  _469
REMARK  187  A    between atoms: _472  and  _474
REMARK  188  A    between atoms: _474  and  _475
REMARK  189  A    between atoms: _474  and  _477
REMARK  190  A    between atoms: _477  and  _478
REMARK  191  A    between atoms: _478  and  _479
REMARK  192  A    between atoms: _482  and  _484
REMARK  193  A    between atoms: _484  and  _485
REMARK  194  A    between atoms: _484  and  _487
REMARK  195  A    between atoms: _487  and  _488
REMARK  196  A    between atoms: _490  and  _492
REMARK  197  A    between atoms: _492  and  _493
REMARK  198  A    between atoms: _492  and  _495
REMARK  199  A    between atoms: _495  and  _496
REMARK  200  A    between atoms: _496  and  _497
REMARK  201  A    between atoms: _497  and  _498
REMARK  202  A    between atoms: _507  and  _509
REMARK  203  A    between atoms: _509  and  _510
REMARK  204  A    between atoms: _513  and  _515
REMARK  205  A    between atoms: _515  and  _516
REMARK  206  A    between atoms: _515  and  _518
REMARK  207  A    between atoms: _518  and  _519
REMARK  208  A    between atoms: _519  and  _520
REMARK  209  A    between atoms: _520  and  _521
REMARK  210  A    between atoms: _530  and  _532
REMARK  211  A    between atoms: _532  and  _533
REMARK  212  A    between atoms: _532  and  _535
REMARK  213  A    between atoms: _535  and  _536
REMARK  214  A    between atoms: _539  and  _541
REMARK  215  A    between atoms: _541  and  _542
REMARK  216  A    between atoms: _544  and  _546
REMARK  217  A    between atoms: _546  and  _547
REMARK  218  A    between atoms: _546  and  _549
REMARK  219  A    between atoms: _549  and  _550
REMARK  220  A    between atoms: _550  and  _551
REMARK  221  A    between atoms: _551  and  _552
REMARK  222  A    between atoms: _561  and  _563
REMARK  223  A    between atoms: _563  and  _564
REMARK  224  A    between atoms: _567  and  _569
REMARK  225  A    between atoms: _569  and  _570
REMARK  226  A    between atoms: _569  and  _572
REMARK  227  A    between atoms: _572  and  _573
REMARK  228  A    between atoms: _573  and  _574
REMARK  229  A    between atoms: _574  and  _575
REMARK  230  A    between atoms: _584  and  _586
REMARK  231  A    between atoms: _586  and  _587
REMARK  232  A    between atoms: _586  and  _589
REMARK  233  A    between atoms: _589  and  _590
REMARK  234  A    between atoms: _593  and  _595
REMARK  235  A    between atoms: _595  and  _596
REMARK  236  A    between atoms: _595  and  _598
REMARK  237  A    between atoms: _598  and  _599
REMARK  238  A    between atoms: _604  and  _606
REMARK  239  A    between atoms: _606  and  _607
REMARK  240  A    between atoms: _606  and  _609
REMARK  241  A    between atoms: _609  and  _610
REMARK  242  A    between atoms: _615  and  _616
REMARK  243  A    between atoms: _618  and  _620
REMARK  244  A    between atoms: _620  and  _621
REMARK  245  A    between atoms: _620  and  _623
REMARK  246  A    between atoms: _623  and  _624
REMARK  247  A    between atoms: _624  and  _625
REMARK  248  A    between atoms: _625  and  _627
REMARK  249  A    between atoms: _627  and  MG_715
REMARK  250  A    between atoms: _628  and  _630
REMARK  251  A    between atoms: _630  and  _631
REMARK  252  A    between atoms: _630  and  _633
REMARK  253  A    between atoms: _633  and  _634
REMARK  254  A    between atoms: _634  and  _635
REMARK  255  A    between atoms: _635  and  _636
REMARK  256  A    between atoms: _645  and  _647
REMARK  257  A    between atoms: _647  and  _648
REMARK  258  A    between atoms: _647  and  _650
REMARK  259  A    between atoms: _650  and  _651
REMARK  260  A    between atoms: _654  and  _656
REMARK  261  A    between atoms: _656  and  _657
REMARK  262  A    between atoms: _656  and  _659
REMARK  263  A    between atoms: _659  and  _660
REMARK  264  A    between atoms: _663  and  _665
REMARK  265  A    between atoms: _665  and  _666
REMARK  266  A    between atoms: _665  and  _668
REMARK  267  A    between atoms: _668  and  _669
REMARK  268  A    between atoms: _669  and  _670
REMARK  269  A    between atoms: _675  and  _677
REMARK  270  A    between atoms: _677  and  _678
REMARK  271  A    between atoms: _677  and  _680
REMARK  272  A    between atoms: _680  and  _681
REMARK  273  A    between atoms: _684  and  _686
REMARK  274  A    between atoms: _686  and  _687
REMARK  275  A    between atoms: _686  and  _689
REMARK  276  A    between atoms: _689  and  _690
REMARK  277  A    between atoms: _695  and  _696
REMARK  278  A    between atoms: _698  and  _700
REMARK  279  A    between atoms: _700  and  _701
REMARK  280  A    between atoms: _700  and  _703
REMARK  281  A    between atoms: _703  and  _704
REMARK  282  A    between atoms: _704  and  _705
REMARK  283  A    between atoms: _705  and  _706
REMARK                            x       y       z     vdW  Elec       q    Type
REMARK                         _______ _______ _______ _____ _____    ______ ____
ROOT
ATOM      1  O   HOH     1      22.629  18.993   4.181  0.00  0.00    +0.000 OA
ENDROOT
TORSDOF 0
REMARK  Name = ../refined-set-2016/1mrn/1mrn_pocket.pdb
REMARK  283 active torsions:
REMARK  status: ('A' for Active; 'I' for Inactive)
REMARK    1  A    between atoms: _1  and  _3
REMARK    2  A    between atoms: _3  and  _4
REMARK    3  A    between atoms: _3  and  _6
REMARK    4  A    between atoms: _6  and  _7
REMARK    5  A    between atoms: _7  and  _8
REMARK    6  A    between atoms: _11  and  _13
REMARK    7  A    between atoms: _13  and  _14
REMARK    8  A    between atoms: _16  and  _18
REMARK    9  A    between atoms: _18  and  _19
REMARK   10  A    between atoms: _18  and  _21
REMARK   11  A    between atoms: _24  and  _26
REMARK   12  A    between atoms: _26  and  _27
REMARK   13  A    between atoms: _26  and  _29
REMARK   14  A    between atoms: _29  and  _30
REMARK   15  A    between atoms: _30  and  _31
REMARK   16  A    between atoms: _31  and  MG_715
REMARK   17  A    between atoms: _33  and  _35
REMARK   18  A    between atoms: _35  and  _36
REMARK   19  A    between atoms: _38  and  _40
REMARK   20  A    between atoms: _40  and  _41
REMARK   21  A    between atoms: _44  and  _46
REMARK   22  A    between atoms: _46  and  _47
REMARK   23  A    between atoms: _46  and  _49
REMARK   24  A    between atoms: _49  and  _50
REMARK   25  A    between atoms: _50  and  _51
REMARK   26  A    between atoms: _51  and  _52
REMARK   27  A    between atoms: _52  and  _53
REMARK   28  A    between atoms: _57  and  _59
REMARK   29  A    between atoms: _59  and  _60
REMARK   30  A    between atoms: _59  and  _62
REMARK   31  A    between atoms: _62  and  _63
REMARK   32  A    between atoms: _63  and  _64
REMARK   33  A    between atoms: _64  and  _65
REMARK   34  A    between atoms: _74  and  _76
REMARK   35  A    between atoms: _76  and  _77
REMARK   36  A    between atoms: _80  and  _82
REMARK   37  A    between atoms: _82  and  _83
REMARK   38  A    between atoms: _82  and  _85
REMARK   39  A    between atoms: _85  and  _86
REMARK   40  A    between atoms: _93  and  _94
REMARK   41  A    between atoms: _99  and  _101
REMARK   42  A    between atoms: _101  and  _102
REMARK   43  A    between atoms: _101  and  _104
REMARK   44  A    between atoms: _104  and  _105
REMARK   45  A    between atoms: _105  and  _106
REMARK   46  A    between atoms: _106  and  _107
REMARK   47  A    between atoms: _116  and  _118
REMARK   48  A    between atoms: _118  and  _119
REMARK   49  A    between atoms: _118  and  _121
REMARK   50  A    between atoms: _121  and  _122
REMARK   51  A    between atoms: _127  and  _128
REMARK   52  A    between atoms: _130  and  _132
REMARK   53  A    between atoms: _132  and  _133
REMARK   54  A    between atoms: _135  and  _137
REMARK   55  A    between atoms: _137  and  _138
REMARK   56  A    between atoms: _137  and  _140
REMARK   57  A    between atoms: _140  and  _141
REMARK   58  A    between atoms: _143  and  _145
REMARK   59  A    between atoms: _145  and  _146
REMARK   60  A    between atoms: _145  and  _148
REMARK   61  A    between atoms: _151  and  _153
REMARK   62  A    between atoms: _153  and  _154
REMARK   63  A    between atoms: _157  and  _159
REMARK   64  A    between atoms: _159  and  _160
REMARK   65  A    between atoms: _159  and  _162
REMARK   66  A    between atoms: _162  and  _163
REMARK   67  A    between atoms: _166  and  _168
REMARK   68  A    between atoms: _168  and  _169
REMARK   69  A    between atoms: _168  and  _171
REMARK   70  A    between atoms: _171  and  _172
REMARK   71  A    between atoms: _175  and  _177
REMARK   72  A    between atoms: _177  and  _178
REMARK   73  A    between atoms: _181  and  _183
REMARK   74  A    between atoms: _183  and  _184
REMARK   75  A    between atoms: _187  and  _189
REMARK   76  A    between atoms: _189  and  _190
REMARK   77  A    between atoms: _189  and  _192
REMARK   78  A    between atoms: _192  and  _193
REMARK   79  A    between atoms: _193  and  _194
REMARK   80  A    between atoms: _197  and  _199
REMARK   81  A    between atoms: _199  and  _200
REMARK   82  A    between atoms: _203  and  _205
REMARK   83  A    between atoms: _205  and  _206
REMARK   84  A    between atoms: _205  and  _208
REMARK   85  A    between atoms: _208  and  _209
REMARK   86  A    between atoms: _212  and  _214
REMARK   87  A    between atoms: _214  and  _215
REMARK   88  A    between atoms: _214  and  _217
REMARK   89  A    between atoms: _217  and  _218
REMARK   90  A    between atoms: _223  and  _225
REMARK   91  A    between atoms: _225  and  _226
REMARK   92  A    between atoms: _228  and  _230
REMARK   93  A    between atoms: _230  and  _231
REMARK   94  A    between atoms: _230  and  _233
REMARK   95  A    between atoms: _233  and  _234
REMARK   96  A    between atoms: _234  and  _235
REMARK   97  A    between atoms: _238  and  _240
REMARK   98  A    between atoms: _240  and  _241
REMARK   99  A    between atoms: _240  and  _243
REMARK  100  A    between atoms: _243  and  _244
REMARK  101  A    between atoms: _249  and  _251
REMARK  102  A    between atoms: _251  and  _252
REMARK  103  A    between atoms: _251  and  _254
REMARK  104  A    between atoms: _257  and  _259
REMARK  105  A    between atoms: _259  and  _260
REMARK  106  A    between atoms: _259  and  _262
REMARK  107  A    between atoms: _262  and  _263
REMARK  108  A    between atoms: _263  and  _264
REMARK  109  A    between atoms: _266  and  _268
REMARK  110  A    between atoms: _268  and  _269
REMARK  111  A    between atoms: _272  and  _274
REMARK  112  A    between atoms: _274  and  _275
REMARK  113  A    between atoms: _274  and  _277
REMARK  114  A    between atoms: _277  and  _278
REMARK  115  A    between atoms: _281  and  _283
REMARK  116  A    between atoms: _283  and  _284
REMARK  117  A    between atoms: _283  and  _286
REMARK  118  A    between atoms: _286  and  _287
REMARK  119  A    between atoms: _290  and  _292
REMARK  120  A    between atoms: _292  and  _293
REMARK  121  A    between atoms: _292  and  _295
REMARK  122  A    between atoms: _295  and  _296
REMARK  123  A    between atoms: _302  and  _304
REMARK  124  A    between atoms: _304  and  _305
REMARK  125  A    between atoms: _308  and  _310
REMARK  126  A    between atoms: _310  and  _311
REMARK  127  A    between atoms: _310  and  _313
REMARK  128  A    between atoms: _313  and  _314
REMARK  129  A    between atoms: _317  and  _319
REMARK  130  A    between atoms: _319  and  _320
REMARK  131  A    between atoms: _319  and  _322
REMARK  132  A    between atoms: _322  and  _323
REMARK  133  A    between atoms: _323  and  _324
REMARK  134  A    between atoms: _324  and  _325
REMARK  135  A    between atoms: _334  and  _336
REMARK  136  A    between atoms: _336  and  _337
REMARK  137  A    between atoms: _336  and  _339
REMARK  138  A    between atoms: _339  and  _340
REMARK  139  A    between atoms: _343  and  _345
REMARK  140  A    between atoms: _345  and  _346
REMARK  141  A    between atoms: _345  and  _348
REMARK  142  A    between atoms: _348  and  _349
REMARK  143  A    between atoms: _349  and  _350
REMARK  144  A    between atoms: _350  and  _351
REMARK  145  A    between atoms: _360  and  _362
REMARK  146  A    between atoms: _362  and  _363
REMARK  147  A    between atoms: _362  and  _365
REMARK  148  A    between atoms: _365  and  _366
REMARK  149  A    between atoms: _371  and  _372
REMARK  150  A    between atoms: _374  and  _376
REMARK  151  A    between atoms: _376  and  _377
REMARK  152  A    between atoms: _376  and  _379
REMARK  153  A    between atoms: _382  and  _384
REMARK  154  A    between atoms: _384  and  _385
REMARK  155  A    between atoms: _388  and  _390
REMARK  156  A    between atoms: _390  and  _391
REMARK  157  A    between atoms: _390  and  _393
REMARK  158  A    between atoms: _393  and  _394
REMARK  159  A    between atoms: _396  and  _398
REMARK  160  A    between atoms: _398  and  _399
REMARK  161  A    between atoms: _398  and  _401
REMARK  162  A    between atoms: _401  and  _402
REMARK  163  A    between atoms: _407  and  _409
REMARK  164  A    between atoms: _409  and  _410
REMARK  165  A    between atoms: _413  and  _415
REMARK  166  A    between atoms: _415  and  _416
REMARK  167  A    between atoms: _419  and  _421
REMARK  168  A    between atoms: _421  and  _422
REMARK  169  A    between atoms: _421  and  _424
REMARK  170  A    between atoms: _424  and  _425
REMARK  171  A    between atoms: _430  and  _431
REMARK  172  A    between atoms: _433  and  _435
REMARK  173  A    between atoms: _435  and  _436
REMARK  174  A    between atoms: _435  and  _438
REMARK  175  A    between atoms: _438  and  _439
REMARK  176  A    between atoms: _441  and  _443
REMARK  177  A    between atoms: _443  and  _444
REMARK  178  A    between atoms: _447  and  _449
REMARK  179  A    between atoms: _449  and  _450
REMARK  180  A    between atoms: _449  and  _452
REMARK  181  A    between atoms: _452  and  _453
REMARK  182  A    between atoms: _453  and  _454
REMARK  183  A    between atoms: _454  and  _455
REMARK  184  A    between atoms: _464  and  _466
REMARK  185  A    between atoms: _466  and  _467
REMARK  186  A    between atoms: _466  and  _469
REMARK  187  A    between atoms: _472  and  _474
REMARK  188  A    between atoms: _474  and  _475
REMARK  189  A    between atoms: _474  and  _477
REMARK  190  A    between atoms: _477  and  _478
REMARK  191  A    between atoms: _478  and  _479
REMARK  192  A    between atoms: _482  and  _484
REMARK  193  A    between atoms: _484  and  _485
REMARK  194  A    between atoms: _484  and  _487
REMARK  195  A    between atoms: _487  and  _488
REMARK  196  A    between atoms: _490  and  _492
REMARK  197  A    between atoms: _492  and  _493
REMARK  198  A    between atoms: _492  and  _495
REMARK  199  A    between atoms: _495  and  _496
REMARK  200  A    between atoms: _496  and  _497
REMARK  201  A    between atoms: _497  and  _498
REMARK  202  A    between atoms: _507  and  _509
REMARK  203  A    between atoms: _509  and  _510
REMARK  204  A    between atoms: _513  and  _515
REMARK  205  A    between atoms: _515  and  _516
REMARK  206  A    between atoms: _515  and  _518
REMARK  207  A    between atoms: _518  and  _519
REMARK  208  A    between atoms: _519  and  _520
REMARK  209  A    between atoms: _520  and  _521
REMARK  210  A    between atoms: _530  and  _532
REMARK  211  A    between atoms: _532  and  _533
REMARK  212  A    between atoms: _532  and  _535
REMARK  213  A    between atoms: _535  and  _536
REMARK  214  A    between atoms: _539  and  _541
REMARK  215  A    between atoms: _541  and  _542
REMARK  216  A    between atoms: _544  and  _546
REMARK  217  A    between atoms: _546  and  _547
REMARK  218  A    between atoms: _546  and  _549
REMARK  219  A    between atoms: _549  and  _550
REMARK  220  A    between atoms: _550  and  _551
REMARK  221  A    between atoms: _551  and  _552
REMARK  222  A    between atoms: _561  and  _563
REMARK  223  A    between atoms: _563  and  _564
REMARK  224  A    between atoms: _567  and  _569
REMARK  225  A    between atoms: _569  and  _570
REMARK  226  A    between atoms: _569  and  _572
REMARK  227  A    between atoms: _572  and  _573
REMARK  228  A    between atoms: _573  and  _574
REMARK  229  A    between atoms: _574  and  _575
REMARK  230  A    between atoms: _584  and  _586
REMARK  231  A    between atoms: _586  and  _587
REMARK  232  A    between atoms: _586  and  _589
REMARK  233  A    between atoms: _589  and  _590
REMARK  234  A    between atoms: _593  and  _595
REMARK  235  A    between atoms: _595  and  _596
REMARK  236  A    between atoms: _595  and  _598
REMARK  237  A    between atoms: _598  and  _599
REMARK  238  A    between atoms: _604  and  _606
REMARK  239  A    between atoms: _606  and  _607
REMARK  240  A    between atoms: _606  and  _609
REMARK  241  A    between atoms: _609  and  _610
REMARK  242  A    between atoms: _615  and  _616
REMARK  243  A    between atoms: _618  and  _620
REMARK  244  A    between atoms: _620  and  _621
REMARK  245  A    between atoms: _620  and  _623
REMARK  246  A    between atoms: _623  and  _624
REMARK  247  A    between atoms: _624  and  _625
REMARK  248  A    between atoms: _625  and  _627
REMARK  249  A    between atoms: _627  and  MG_715
REMARK  250  A    between atoms: _628  and  _630
REMARK  251  A    between atoms: _630  and  _631
REMARK  252  A    between atoms: _630  and  _633
REMARK  253  A    between atoms: _633  and  _634
REMARK  254  A    between atoms: _634  and  _635
REMARK  255  A    between atoms: _635  and  _636
REMARK  256  A    between atoms: _645  and  _647
REMARK  257  A    between atoms: _647  and  _648
REMARK  258  A    between atoms: _647  and  _650
REMARK  259  A    between atoms: _650  and  _651
REMARK  260  A    between atoms: _654  and  _656
REMARK  261  A    between atoms: _656  and  _657
REMARK  262  A    between atoms: _656  and  _659
REMARK  263  A    between atoms: _659  and  _660
REMARK  264  A    between atoms: _663  and  _665
REMARK  265  A    between atoms: _665  and  _666
REMARK  266  A    between atoms: _665  and  _668
REMARK  267  A    between atoms: _668  and  _669
REMARK  268  A    between atoms: _669  and  _670
REMARK  269  A    between atoms: _675  and  _677
REMARK  270  A    between atoms: _677  and  _678
REMARK  271  A    between atoms: _677  and  _680
REMARK  272  A    between atoms: _680  and  _681
REMARK  273  A    between atoms: _684  and  _686
REMARK  274  A    between atoms: _686  and  _687
REMARK  275  A    between atoms: _686  and  _689
REMARK  276  A    between atoms: _689  and  _690
REMARK  277  A    between atoms: _695  and  _696
REMARK  278  A    between atoms: _698  and  _700
REMARK  279  A    between atoms: _700  and  _701
REMARK  280  A    between atoms: _700  and  _703
REMARK  281  A    between atoms: _703  and  _704
REMARK  282  A    between atoms: _704  and  _705
REMARK  283  A    between atoms: _705  and  _706
REMARK                            x       y       z     vdW  Elec       q    Type
REMARK                         _______ _______ _______ _____ _____    ______ ____
ROOT
ATOM      1  O   HOH     1      31.003  14.743   7.104  0.00  0.00    +0.000 OA
ENDROOT
TORSDOF 0
REMARK  Name = ../refined-set-2016/1mrn/1mrn_pocket.pdb
REMARK  283 active torsions:
REMARK  status: ('A' for Active; 'I' for Inactive)
REMARK    1  A    between atoms: _1  and  _3
REMARK    2  A    between atoms: _3  and  _4
REMARK    3  A    between atoms: _3  and  _6
REMARK    4  A    between atoms: _6  and  _7
REMARK    5  A    between atoms: _7  and  _8
REMARK    6  A    between atoms: _11  and  _13
REMARK    7  A    between atoms: _13  and  _14
REMARK    8  A    between atoms: _16  and  _18
REMARK    9  A    between atoms: _18  and  _19
REMARK   10  A    between atoms: _18  and  _21
REMARK   11  A    between atoms: _24  and  _26
REMARK   12  A    between atoms: _26  and  _27
REMARK   13  A    between atoms: _26  and  _29
REMARK   14  A    between atoms: _29  and  _30
REMARK   15  A    between atoms: _30  and  _31
REMARK   16  A    between atoms: _31  and  MG_715
REMARK   17  A    between atoms: _33  and  _35
REMARK   18  A    between atoms: _35  and  _36
REMARK   19  A    between atoms: _38  and  _40
REMARK   20  A    between atoms: _40  and  _41
REMARK   21  A    between atoms: _44  and  _46
REMARK   22  A    between atoms: _46  and  _47
REMARK   23  A    between atoms: _46  and  _49
REMARK   24  A    between atoms: _49  and  _50
REMARK   25  A    between atoms: _50  and  _51
REMARK   26  A    between atoms: _51  and  _52
REMARK   27  A    between atoms: _52  and  _53
REMARK   28  A    between atoms: _57  and  _59
REMARK   29  A    between atoms: _59  and  _60
REMARK   30  A    between atoms: _59  and  _62
REMARK   31  A    between atoms: _62  and  _63
REMARK   32  A    between atoms: _63  and  _64
REMARK   33  A    between atoms: _64  and  _65
REMARK   34  A    between atoms: _74  and  _76
REMARK   35  A    between atoms: _76  and  _77
REMARK   36  A    between atoms: _80  and  _82
REMARK   37  A    between atoms: _82  and  _83
REMARK   38  A    between atoms: _82  and  _85
REMARK   39  A    between atoms: _85  and  _86
REMARK   40  A    between atoms: _93  and  _94
REMARK   41  A    between atoms: _99  and  _101
REMARK   42  A    between atoms: _101  and  _102
REMARK   43  A    between atoms: _101  and  _104
REMARK   44  A    between atoms: _104  and  _105
REMARK   45  A    between atoms: _105  and  _106
REMARK   46  A    between atoms: _106  and  _107
REMARK   47  A    between atoms: _116  and  _118
REMARK   48  A    between atoms: _118  and  _119
REMARK   49  A    between atoms: _118  and  _121
REMARK   50  A    between atoms: _121  and  _122
REMARK   51  A    between atoms: _127  and  _128
REMARK   52  A    between atoms: _130  and  _132
REMARK   53  A    between atoms: _132  and  _133
REMARK   54  A    between atoms: _135  and  _137
REMARK   55  A    between atoms: _137  and  _138
REMARK   56  A    between atoms: _137  and  _140
REMARK   57  A    between atoms: _140  and  _141
REMARK   58  A    between atoms: _143  and  _145
REMARK   59  A    between atoms: _145  and  _146
REMARK   60  A    between atoms: _145  and  _148
REMARK   61  A    between atoms: _151  and  _153
REMARK   62  A    between atoms: _153  and  _154
REMARK   63  A    between atoms: _157  and  _159
REMARK   64  A    between atoms: _159  and  _160
REMARK   65  A    between atoms: _159  and  _162
REMARK   66  A    between atoms: _162  and  _163
REMARK   67  A    between atoms: _166  and  _168
REMARK   68  A    between atoms: _168  and  _169
REMARK   69  A    between atoms: _168  and  _171
REMARK   70  A    between atoms: _171  and  _172
REMARK   71  A    between atoms: _175  and  _177
REMARK   72  A    between atoms: _177  and  _178
REMARK   73  A    between atoms: _181  and  _183
REMARK   74  A    between atoms: _183  and  _184
REMARK   75  A    between atoms: _187  and  _189
REMARK   76  A    between atoms: _189  and  _190
REMARK   77  A    between atoms: _189  and  _192
REMARK   78  A    between atoms: _192  and  _193
REMARK   79  A    between atoms: _193  and  _194
REMARK   80  A    between atoms: _197  and  _199
REMARK   81  A    between atoms: _199  and  _200
REMARK   82  A    between atoms: _203  and  _205
REMARK   83  A    between atoms: _205  and  _206
REMARK   84  A    between atoms: _205  and  _208
REMARK   85  A    between atoms: _208  and  _209
REMARK   86  A    between atoms: _212  and  _214
REMARK   87  A    between atoms: _214  and  _215
REMARK   88  A    between atoms: _214  and  _217
REMARK   89  A    between atoms: _217  and  _218
REMARK   90  A    between atoms: _223  and  _225
REMARK   91  A    between atoms: _225  and  _226
REMARK   92  A    between atoms: _228  and  _230
REMARK   93  A    between atoms: _230  and  _231
REMARK   94  A    between atoms: _230  and  _233
REMARK   95  A    between atoms: _233  and  _234
REMARK   96  A    between atoms: _234  and  _235
REMARK   97  A    between atoms: _238  and  _240
REMARK   98  A    between atoms: _240  and  _241
REMARK   99  A    between atoms: _240  and  _243
REMARK  100  A    between atoms: _243  and  _244
REMARK  101  A    between atoms: _249  and  _251
REMARK  102  A    between atoms: _251  and  _252
REMARK  103  A    between atoms: _251  and  _254
REMARK  104  A    between atoms: _257  and  _259
REMARK  105  A    between atoms: _259  and  _260
REMARK  106  A    between atoms: _259  and  _262
REMARK  107  A    between atoms: _262  and  _263
REMARK  108  A    between atoms: _263  and  _264
REMARK  109  A    between atoms: _266  and  _268
REMARK  110  A    between atoms: _268  and  _269
REMARK  111  A    between atoms: _272  and  _274
REMARK  112  A    between atoms: _274  and  _275
REMARK  113  A    between atoms: _274  and  _277
REMARK  114  A    between atoms: _277  and  _278
REMARK  115  A    between atoms: _281  and  _283
REMARK  116  A    between atoms: _283  and  _284
REMARK  117  A    between atoms: _283  and  _286
REMARK  118  A    between atoms: _286  and  _287
REMARK  119  A    between atoms: _290  and  _292
REMARK  120  A    between atoms: _292  and  _293
REMARK  121  A    between atoms: _292  and  _295
REMARK  122  A    between atoms: _295  and  _296
REMARK  123  A    between atoms: _302  and  _304
REMARK  124  A    between atoms: _304  and  _305
REMARK  125  A    between atoms: _308  and  _310
REMARK  126  A    between atoms: _310  and  _311
REMARK  127  A    between atoms: _310  and  _313
REMARK  128  A    between atoms: _313  and  _314
REMARK  129  A    between atoms: _317  and  _319
REMARK  130  A    between atoms: _319  and  _320
REMARK  131  A    between atoms: _319  and  _322
REMARK  132  A    between atoms: _322  and  _323
REMARK  133  A    between atoms: _323  and  _324
REMARK  134  A    between atoms: _324  and  _325
REMARK  135  A    between atoms: _334  and  _336
REMARK  136  A    between atoms: _336  and  _337
REMARK  137  A    between atoms: _336  and  _339
REMARK  138  A    between atoms: _339  and  _340
REMARK  139  A    between atoms: _343  and  _345
REMARK  140  A    between atoms: _345  and  _346
REMARK  141  A    between atoms: _345  and  _348
REMARK  142  A    between atoms: _348  and  _349
REMARK  143  A    between atoms: _349  and  _350
REMARK  144  A    between atoms: _350  and  _351
REMARK  145  A    between atoms: _360  and  _362
REMARK  146  A    between atoms: _362  and  _363
REMARK  147  A    between atoms: _362  and  _365
REMARK  148  A    between atoms: _365  and  _366
REMARK  149  A    between atoms: _371  and  _372
REMARK  150  A    between atoms: _374  and  _376
REMARK  151  A    between atoms: _376  and  _377
REMARK  152  A    between atoms: _376  and  _379
REMARK  153  A    between atoms: _382  and  _384
REMARK  154  A    between atoms: _384  and  _385
REMARK  155  A    between atoms: _388  and  _390
REMARK  156  A    between atoms: _390  and  _391
REMARK  157  A    between atoms: _390  and  _393
REMARK  158  A    between atoms: _393  and  _394
REMARK  159  A    between atoms: _396  and  _398
REMARK  160  A    between atoms: _398  and  _399
REMARK  161  A    between atoms: _398  and  _401
REMARK  162  A    between atoms: _401  and  _402
REMARK  163  A    between atoms: _407  and  _409
REMARK  164  A    between atoms: _409  and  _410
REMARK  165  A    between atoms: _413  and  _415
REMARK  166  A    between atoms: _415  and  _416
REMARK  167  A    between atoms: _419  and  _421
REMARK  168  A    between atoms: _421  and  _422
REMARK  169  A    between atoms: _421  and  _424
REMARK  170  A    between atoms: _424  and  _425
REMARK  171  A    between atoms: _430  and  _431
REMARK  172  A    between atoms: _433  and  _435
REMARK  173  A    between atoms: _435  and  _436
REMARK  174  A    between atoms: _435  and  _438
REMARK  175  A    between atoms: _438  and  _439
REMARK  176  A    between atoms: _441  and  _443
REMARK  177  A    between atoms: _443  and  _444
REMARK  178  A    between atoms: _447  and  _449
REMARK  179  A    between atoms: _449  and  _450
REMARK  180  A    between atoms: _449  and  _452
REMARK  181  A    between atoms: _452  and  _453
REMARK  182  A    between atoms: _453  and  _454
REMARK  183  A    between atoms: _454  and  _455
REMARK  184  A    between atoms: _464  and  _466
REMARK  185  A    between atoms: _466  and  _467
REMARK  186  A    between atoms: _466  and  _469
REMARK  187  A    between atoms: _472  and  _474
REMARK  188  A    between atoms: _474  and  _475
REMARK  189  A    between atoms: _474  and  _477
REMARK  190  A    between atoms: _477  and  _478
REMARK  191  A    between atoms: _478  and  _479
REMARK  192  A    between atoms: _482  and  _484
REMARK  193  A    between atoms: _484  and  _485
REMARK  194  A    between atoms: _484  and  _487
REMARK  195  A    between atoms: _487  and  _488
REMARK  196  A    between atoms: _490  and  _492
REMARK  197  A    between atoms: _492  and  _493
REMARK  198  A    between atoms: _492  and  _495
REMARK  199  A    between atoms: _495  and  _496
REMARK  200  A    between atoms: _496  and  _497
REMARK  201  A    between atoms: _497  and  _498
REMARK  202  A    between atoms: _507  and  _509
REMARK  203  A    between atoms: _509  and  _510
REMARK  204  A    between atoms: _513  and  _515
REMARK  205  A    between atoms: _515  and  _516
REMARK  206  A    between atoms: _515  and  _518
REMARK  207  A    between atoms: _518  and  _519
REMARK  208  A    between atoms: _519  and  _520
REMARK  209  A    between atoms: _520  and  _521
REMARK  210  A    between atoms: _530  and  _532
REMARK  211  A    between atoms: _532  and  _533
REMARK  212  A    between atoms: _532  and  _535
REMARK  213  A    between atoms: _535  and  _536
REMARK  214  A    between atoms: _539  and  _541
REMARK  215  A    between atoms: _541  and  _542
REMARK  216  A    between atoms: _544  and  _546
REMARK  217  A    between atoms: _546  and  _547
REMARK  218  A    between atoms: _546  and  _549
REMARK  219  A    between atoms: _549  and  _550
REMARK  220  A    between atoms: _550  and  _551
REMARK  221  A    between atoms: _551  and  _552
REMARK  222  A    between atoms: _561  and  _563
REMARK  223  A    between atoms: _563  and  _564
REMARK  224  A    between atoms: _567  and  _569
REMARK  225  A    between atoms: _569  and  _570
REMARK  226  A    between atoms: _569  and  _572
REMARK  227  A    between atoms: _572  and  _573
REMARK  228  A    between atoms: _573  and  _574
REMARK  229  A    between atoms: _574  and  _575
REMARK  230  A    between atoms: _584  and  _586
REMARK  231  A    between atoms: _586  and  _587
REMARK  232  A    between atoms: _586  and  _589
REMARK  233  A    between atoms: _589  and  _590
REMARK  234  A    between atoms: _593  and  _595
REMARK  235  A    between atoms: _595  and  _596
REMARK  236  A    between atoms: _595  and  _598
REMARK  237  A    between atoms: _598  and  _599
REMARK  238  A    between atoms: _604  and  _606
REMARK  239  A    between atoms: _606  and  _607
REMARK  240  A    between atoms: _606  and  _609
REMARK  241  A    between atoms: _609  and  _610
REMARK  242  A    between atoms: _615  and  _616
REMARK  243  A    between atoms: _618  and  _620
REMARK  244  A    between atoms: _620  and  _621
REMARK  245  A    between atoms: _620  and  _623
REMARK  246  A    between atoms: _623  and  _624
REMARK  247  A    between atoms: _624  and  _625
REMARK  248  A    between atoms: _625  and  _627
REMARK  249  A    between atoms: _627  and  MG_715
REMARK  250  A    between atoms: _628  and  _630
REMARK  251  A    between atoms: _630  and  _631
REMARK  252  A    between atoms: _630  and  _633
REMARK  253  A    between atoms: _633  and  _634
REMARK  254  A    between atoms: _634  and  _635
REMARK  255  A    between atoms: _635  and  _636
REMARK  256  A    between atoms: _645  and  _647
REMARK  257  A    between atoms: _647  and  _648
REMARK  258  A    between atoms: _647  and  _650
REMARK  259  A    between atoms: _650  and  _651
REMARK  260  A    between atoms: _654  and  _656
REMARK  261  A    between atoms: _656  and  _657
REMARK  262  A    between atoms: _656  and  _659
REMARK  263  A    between atoms: _659  and  _660
REMARK  264  A    between atoms: _663  and  _665
REMARK  265  A    between atoms: _665  and  _666
REMARK  266  A    between atoms: _665  and  _668
REMARK  267  A    between atoms: _668  and  _669
REMARK  268  A    between atoms: _669  and  _670
REMARK  269  A    between atoms: _675  and  _677
REMARK  270  A    between atoms: _677  and  _678
REMARK  271  A    between atoms: _677  and  _680
REMARK  272  A    between atoms: _680  and  _681
REMARK  273  A    between atoms: _684  and  _686
REMARK  274  A    between atoms: _686  and  _687
REMARK  275  A    between atoms: _686  and  _689
REMARK  276  A    between atoms: _689  and  _690
REMARK  277  A    between atoms: _695  and  _696
REMARK  278  A    between atoms: _698  and  _700
REMARK  279  A    between atoms: _700  and  _701
REMARK  280  A    between atoms: _700  and  _703
REMARK  281  A    between atoms: _703  and  _704
REMARK  282  A    between atoms: _704  and  _705
REMARK  283  A    between atoms: _705  and  _706
REMARK                            x       y       z     vdW  Elec       q    Type
REMARK                         _______ _______ _______ _____ _____    ______ ____
ROOT
ATOM      1  O   HOH     1      30.191  20.472   3.871  0.00  0.00    +0.000 OA
ENDROOT
TORSDOF 0
REMARK  Name = ../refined-set-2016/1mrn/1mrn_pocket.pdb
REMARK  283 active torsions:
REMARK  status: ('A' for Active; 'I' for Inactive)
REMARK    1  A    between atoms: _1  and  _3
REMARK    2  A    between atoms: _3  and  _4
REMARK    3  A    between atoms: _3  and  _6
REMARK    4  A    between atoms: _6  and  _7
REMARK    5  A    between atoms: _7  and  _8
REMARK    6  A    between atoms: _11  and  _13
REMARK    7  A    between atoms: _13  and  _14
REMARK    8  A    between atoms: _16  and  _18
REMARK    9  A    between atoms: _18  and  _19
REMARK   10  A    between atoms: _18  and  _21
REMARK   11  A    between atoms: _24  and  _26
REMARK   12  A    between atoms: _26  and  _27
REMARK   13  A    between atoms: _26  and  _29
REMARK   14  A    between atoms: _29  and  _30
REMARK   15  A    between atoms: _30  and  _31
REMARK   16  A    between atoms: _31  and  MG_715
REMARK   17  A    between atoms: _33  and  _35
REMARK   18  A    between atoms: _35  and  _36
REMARK   19  A    between atoms: _38  and  _40
REMARK   20  A    between atoms: _40  and  _41
REMARK   21  A    between atoms: _44  and  _46
REMARK   22  A    between atoms: _46  and  _47
REMARK   23  A    between atoms: _46  and  _49
REMARK   24  A    between atoms: _49  and  _50
REMARK   25  A    between atoms: _50  and  _51
REMARK   26  A    between atoms: _51  and  _52
REMARK   27  A    between atoms: _52  and  _53
REMARK   28  A    between atoms: _57  and  _59
REMARK   29  A    between atoms: _59  and  _60
REMARK   30  A    between atoms: _59  and  _62
REMARK   31  A    between atoms: _62  and  _63
REMARK   32  A    between atoms: _63  and  _64
REMARK   33  A    between atoms: _64  and  _65
REMARK   34  A    between atoms: _74  and  _76
REMARK   35  A    between atoms: _76  and  _77
REMARK   36  A    between atoms: _80  and  _82
REMARK   37  A    between atoms: _82  and  _83
REMARK   38  A    between atoms: _82  and  _85
REMARK   39  A    between atoms: _85  and  _86
REMARK   40  A    between atoms: _93  and  _94
REMARK   41  A    between atoms: _99  and  _101
REMARK   42  A    between atoms: _101  and  _102
REMARK   43  A    between atoms: _101  and  _104
REMARK   44  A    between atoms: _104  and  _105
REMARK   45  A    between atoms: _105  and  _106
REMARK   46  A    between atoms: _106  and  _107
REMARK   47  A    between atoms: _116  and  _118
REMARK   48  A    between atoms: _118  and  _119
REMARK   49  A    between atoms: _118  and  _121
REMARK   50  A    between atoms: _121  and  _122
REMARK   51  A    between atoms: _127  and  _128
REMARK   52  A    between atoms: _130  and  _132
REMARK   53  A    between atoms: _132  and  _133
REMARK   54  A    between atoms: _135  and  _137
REMARK   55  A    between atoms: _137  and  _138
REMARK   56  A    between atoms: _137  and  _140
REMARK   57  A    between atoms: _140  and  _141
REMARK   58  A    between atoms: _143  and  _145
REMARK   59  A    between atoms: _145  and  _146
REMARK   60  A    between atoms: _145  and  _148
REMARK   61  A    between atoms: _151  and  _153
REMARK   62  A    between atoms: _153  and  _154
REMARK   63  A    between atoms: _157  and  _159
REMARK   64  A    between atoms: _159  and  _160
REMARK   65  A    between atoms: _159  and  _162
REMARK   66  A    between atoms: _162  and  _163
REMARK   67  A    between atoms: _166  and  _168
REMARK   68  A    between atoms: _168  and  _169
REMARK   69  A    between atoms: _168  and  _171
REMARK   70  A    between atoms: _171  and  _172
REMARK   71  A    between atoms: _175  and  _177
REMARK   72  A    between atoms: _177  and  _178
REMARK   73  A    between atoms: _181  and  _183
REMARK   74  A    between atoms: _183  and  _184
REMARK   75  A    between atoms: _187  and  _189
REMARK   76  A    between atoms: _189  and  _190
REMARK   77  A    between atoms: _189  and  _192
REMARK   78  A    between atoms: _192  and  _193
REMARK   79  A    between atoms: _193  and  _194
REMARK   80  A    between atoms: _197  and  _199
REMARK   81  A    between atoms: _199  and  _200
REMARK   82  A    between atoms: _203  and  _205
REMARK   83  A    between atoms: _205  and  _206
REMARK   84  A    between atoms: _205  and  _208
REMARK   85  A    between atoms: _208  and  _209
REMARK   86  A    between atoms: _212  and  _214
REMARK   87  A    between atoms: _214  and  _215
REMARK   88  A    between atoms: _214  and  _217
REMARK   89  A    between atoms: _217  and  _218
REMARK   90  A    between atoms: _223  and  _225
REMARK   91  A    between atoms: _225  and  _226
REMARK   92  A    between atoms: _228  and  _230
REMARK   93  A    between atoms: _230  and  _231
REMARK   94  A    between atoms: _230  and  _233
REMARK   95  A    between atoms: _233  and  _234
REMARK   96  A    between atoms: _234  and  _235
REMARK   97  A    between atoms: _238  and  _240
REMARK   98  A    between atoms: _240  and  _241
REMARK   99  A    between atoms: _240  and  _243
REMARK  100  A    between atoms: _243  and  _244
REMARK  101  A    between atoms: _249  and  _251
REMARK  102  A    between atoms: _251  and  _252
REMARK  103  A    between atoms: _251  and  _254
REMARK  104  A    between atoms: _257  and  _259
REMARK  105  A    between atoms: _259  and  _260
REMARK  106  A    between atoms: _259  and  _262
REMARK  107  A    between atoms: _262  and  _263
REMARK  108  A    between atoms: _263  and  _264
REMARK  109  A    between atoms: _266  and  _268
REMARK  110  A    between atoms: _268  and  _269
REMARK  111  A    between atoms: _272  and  _274
REMARK  112  A    between atoms: _274  and  _275
REMARK  113  A    between atoms: _274  and  _277
REMARK  114  A    between atoms: _277  and  _278
REMARK  115  A    between atoms: _281  and  _283
REMARK  116  A    between atoms: _283  and  _284
REMARK  117  A    between atoms: _283  and  _286
REMARK  118  A    between atoms: _286  and  _287
REMARK  119  A    between atoms: _290  and  _292
REMARK  120  A    between atoms: _292  and  _293
REMARK  121  A    between atoms: _292  and  _295
REMARK  122  A    between atoms: _295  and  _296
REMARK  123  A    between atoms: _302  and  _304
REMARK  124  A    between atoms: _304  and  _305
REMARK  125  A    between atoms: _308  and  _310
REMARK  126  A    between atoms: _310  and  _311
REMARK  127  A    between atoms: _310  and  _313
REMARK  128  A    between atoms: _313  and  _314
REMARK  129  A    between atoms: _317  and  _319
REMARK  130  A    between atoms: _319  and  _320
REMARK  131  A    between atoms: _319  and  _322
REMARK  132  A    between atoms: _322  and  _323
REMARK  133  A    between atoms: _323  and  _324
REMARK  134  A    between atoms: _324  and  _325
REMARK  135  A    between atoms: _334  and  _336
REMARK  136  A    between atoms: _336  and  _337
REMARK  137  A    between atoms: _336  and  _339
REMARK  138  A    between atoms: _339  and  _340
REMARK  139  A    between atoms: _343  and  _345
REMARK  140  A    between atoms: _345  and  _346
REMARK  141  A    between atoms: _345  and  _348
REMARK  142  A    between atoms: _348  and  _349
REMARK  143  A    between atoms: _349  and  _350
REMARK  144  A    between atoms: _350  and  _351
REMARK  145  A    between atoms: _360  and  _362
REMARK  146  A    between atoms: _362  and  _363
REMARK  147  A    between atoms: _362  and  _365
REMARK  148  A    between atoms: _365  and  _366
REMARK  149  A    between atoms: _371  and  _372
REMARK  150  A    between atoms: _374  and  _376
REMARK  151  A    between atoms: _376  and  _377
REMARK  152  A    between atoms: _376  and  _379
REMARK  153  A    between atoms: _382  and  _384
REMARK  154  A    between atoms: _384  and  _385
REMARK  155  A    between atoms: _388  and  _390
REMARK  156  A    between atoms: _390  and  _391
REMARK  157  A    between atoms: _390  and  _393
REMARK  158  A    between atoms: _393  and  _394
REMARK  159  A    between atoms: _396  and  _398
REMARK  160  A    between atoms: _398  and  _399
REMARK  161  A    between atoms: _398  and  _401
REMARK  162  A    between atoms: _401  and  _402
REMARK  163  A    between atoms: _407  and  _409
REMARK  164  A    between atoms: _409  and  _410
REMARK  165  A    between atoms: _413  and  _415
REMARK  166  A    between atoms: _415  and  _416
REMARK  167  A    between atoms: _419  and  _421
REMARK  168  A    between atoms: _421  and  _422
REMARK  169  A    between atoms: _421  and  _424
REMARK  170  A    between atoms: _424  and  _425
REMARK  171  A    between atoms: _430  and  _431
REMARK  172  A    between atoms: _433  and  _435
REMARK  173  A    between atoms: _435  and  _436
REMARK  174  A    between atoms: _435  and  _438
REMARK  175  A    between atoms: _438  and  _439
REMARK  176  A    between atoms: _441  and  _443
REMARK  177  A    between atoms: _443  and  _444
REMARK  178  A    between atoms: _447  and  _449
REMARK  179  A    between atoms: _449  and  _450
REMARK  180  A    between atoms: _449  and  _452
REMARK  181  A    between atoms: _452  and  _453
REMARK  182  A    between atoms: _453  and  _454
REMARK  183  A    between atoms: _454  and  _455
REMARK  184  A    between atoms: _464  and  _466
REMARK  185  A    between atoms: _466  and  _467
REMARK  186  A    between atoms: _466  and  _469
REMARK  187  A    between atoms: _472  and  _474
REMARK  188  A    between atoms: _474  and  _475
REMARK  189  A    between atoms: _474  and  _477
REMARK  190  A    between atoms: _477  and  _478
REMARK  191  A    between atoms: _478  and  _479
REMARK  192  A    between atoms: _482  and  _484
REMARK  193  A    between atoms: _484  and  _485
REMARK  194  A    between atoms: _484  and  _487
REMARK  195  A    between atoms: _487  and  _488
REMARK  196  A    between atoms: _490  and  _492
REMARK  197  A    between atoms: _492  and  _493
REMARK  198  A    between atoms: _492  and  _495
REMARK  199  A    between atoms: _495  and  _496
REMARK  200  A    between atoms: _496  and  _497
REMARK  201  A    between atoms: _497  and  _498
REMARK  202  A    between atoms: _507  and  _509
REMARK  203  A    between atoms: _509  and  _510
REMARK  204  A    between atoms: _513  and  _515
REMARK  205  A    between atoms: _515  and  _516
REMARK  206  A    between atoms: _515  and  _518
REMARK  207  A    between atoms: _518  and  _519
REMARK  208  A    between atoms: _519  and  _520
REMARK  209  A    between atoms: _520  and  _521
REMARK  210  A    between atoms: _530  and  _532
REMARK  211  A    between atoms: _532  and  _533
REMARK  212  A    between atoms: _532  and  _535
REMARK  213  A    between atoms: _535  and  _536
REMARK  214  A    between atoms: _539  and  _541
REMARK  215  A    between atoms: _541  and  _542
REMARK  216  A    between atoms: _544  and  _546
REMARK  217  A    between atoms: _546  and  _547
REMARK  218  A    between atoms: _546  and  _549
REMARK  219  A    between atoms: _549  and  _550
REMARK  220  A    between atoms: _550  and  _551
REMARK  221  A    between atoms: _551  and  _552
REMARK  222  A    between atoms: _561  and  _563
REMARK  223  A    between atoms: _563  and  _564
REMARK  224  A    between atoms: _567  and  _569
REMARK  225  A    between atoms: _569  and  _570
REMARK  226  A    between atoms: _569  and  _572
REMARK  227  A    between atoms: _572  and  _573
REMARK  228  A    between atoms: _573  and  _574
REMARK  229  A    between atoms: _574  and  _575
REMARK  230  A    between atoms: _584  and  _586
REMARK  231  A    between atoms: _586  and  _587
REMARK  232  A    between atoms: _586  and  _589
REMARK  233  A    between atoms: _589  and  _590
REMARK  234  A    between atoms: _593  and  _595
REMARK  235  A    between atoms: _595  and  _596
REMARK  236  A    between atoms: _595  and  _598
REMARK  237  A    between atoms: _598  and  _599
REMARK  238  A    between atoms: _604  and  _606
REMARK  239  A    between atoms: _606  and  _607
REMARK  240  A    between atoms: _606  and  _609
REMARK  241  A    between atoms: _609  and  _610
REMARK  242  A    between atoms: _615  and  _616
REMARK  243  A    between atoms: _618  and  _620
REMARK  244  A    between atoms: _620  and  _621
REMARK  245  A    between atoms: _620  and  _623
REMARK  246  A    between atoms: _623  and  _624
REMARK  247  A    between atoms: _624  and  _625
REMARK  248  A    between atoms: _625  and  _627
REMARK  249  A    between atoms: _627  and  MG_715
REMARK  250  A    between atoms: _628  and  _630
REMARK  251  A    between atoms: _630  and  _631
REMARK  252  A    between atoms: _630  and  _633
REMARK  253  A    between atoms: _633  and  _634
REMARK  254  A    between atoms: _634  and  _635
REMARK  255  A    between atoms: _635  and  _636
REMARK  256  A    between atoms: _645  and  _647
REMARK  257  A    between atoms: _647  and  _648
REMARK  258  A    between atoms: _647  and  _650
REMARK  259  A    between atoms: _650  and  _651
REMARK  260  A    between atoms: _654  and  _656
REMARK  261  A    between atoms: _656  and  _657
REMARK  262  A    between atoms: _656  and  _659
REMARK  263  A    between atoms: _659  and  _660
REMARK  264  A    between atoms: _663  and  _665
REMARK  265  A    between atoms: _665  and  _666
REMARK  266  A    between atoms: _665  and  _668
REMARK  267  A    between atoms: _668  and  _669
REMARK  268  A    between atoms: _669  and  _670
REMARK  269  A    between atoms: _675  and  _677
REMARK  270  A    between atoms: _677  and  _678
REMARK  271  A    between atoms: _677  and  _680
REMARK  272  A    between atoms: _680  and  _681
REMARK  273  A    between atoms: _684  and  _686
REMARK  274  A    between atoms: _686  and  _687
REMARK  275  A    between atoms: _686  and  _689
REMARK  276  A    between atoms: _689  and  _690
REMARK  277  A    between atoms: _695  and  _696
REMARK  278  A    between atoms: _698  and  _700
REMARK  279  A    between atoms: _700  and  _701
REMARK  280  A    between atoms: _700  and  _703
REMARK  281  A    between atoms: _703  and  _704
REMARK  282  A    between atoms: _704  and  _705
REMARK  283  A    between atoms: _705  and  _706
REMARK                            x       y       z     vdW  Elec       q    Type
REMARK                         _______ _______ _______ _____ _____    ______ ____
ROOT
ATOM      1  O   HOH     1      22.675  21.010   8.107  0.00  0.00    +0.000 OA
ENDROOT
TORSDOF 0
REMARK  Name = ../refined-set-2016/1mrn/1mrn_pocket.pdb
REMARK  283 active torsions:
REMARK  status: ('A' for Active; 'I' for Inactive)
REMARK    1  A    between atoms: _1  and  _3
REMARK    2  A    between atoms: _3  and  _4
REMARK    3  A    between atoms: _3  and  _6
REMARK    4  A    between atoms: _6  and  _7
REMARK    5  A    between atoms: _7  and  _8
REMARK    6  A    between atoms: _11  and  _13
REMARK    7  A    between atoms: _13  and  _14
REMARK    8  A    between atoms: _16  and  _18
REMARK    9  A    between atoms: _18  and  _19
REMARK   10  A    between atoms: _18  and  _21
REMARK   11  A    between atoms: _24  and  _26
REMARK   12  A    between atoms: _26  and  _27
REMARK   13  A    between atoms: _26  and  _29
REMARK   14  A    between atoms: _29  and  _30
REMARK   15  A    between atoms: _30  and  _31
REMARK   16  A    between atoms: _31  and  MG_715
REMARK   17  A    between atoms: _33  and  _35
REMARK   18  A    between atoms: _35  and  _36
REMARK   19  A    between atoms: _38  and  _40
REMARK   20  A    between atoms: _40  and  _41
REMARK   21  A    between atoms: _44  and  _46
REMARK   22  A    between atoms: _46  and  _47
REMARK   23  A    between atoms: _46  and  _49
REMARK   24  A    between atoms: _49  and  _50
REMARK   25  A    between atoms: _50  and  _51
REMARK   26  A    between atoms: _51  and  _52
REMARK   27  A    between atoms: _52  and  _53
REMARK   28  A    between atoms: _57  and  _59
REMARK   29  A    between atoms: _59  and  _60
REMARK   30  A    between atoms: _59  and  _62
REMARK   31  A    between atoms: _62  and  _63
REMARK   32  A    between atoms: _63  and  _64
REMARK   33  A    between atoms: _64  and  _65
REMARK   34  A    between atoms: _74  and  _76
REMARK   35  A    between atoms: _76  and  _77
REMARK   36  A    between atoms: _80  and  _82
REMARK   37  A    between atoms: _82  and  _83
REMARK   38  A    between atoms: _82  and  _85
REMARK   39  A    between atoms: _85  and  _86
REMARK   40  A    between atoms: _93  and  _94
REMARK   41  A    between atoms: _99  and  _101
REMARK   42  A    between atoms: _101  and  _102
REMARK   43  A    between atoms: _101  and  _104
REMARK   44  A    between atoms: _104  and  _105
REMARK   45  A    between atoms: _105  and  _106
REMARK   46  A    between atoms: _106  and  _107
REMARK   47  A    between atoms: _116  and  _118
REMARK   48  A    between atoms: _118  and  _119
REMARK   49  A    between atoms: _118  and  _121
REMARK   50  A    between atoms: _121  and  _122
REMARK   51  A    between atoms: _127  and  _128
REMARK   52  A    between atoms: _130  and  _132
REMARK   53  A    between atoms: _132  and  _133
REMARK   54  A    between atoms: _135  and  _137
REMARK   55  A    between atoms: _137  and  _138
REMARK   56  A    between atoms: _137  and  _140
REMARK   57  A    between atoms: _140  and  _141
REMARK   58  A    between atoms: _143  and  _145
REMARK   59  A    between atoms: _145  and  _146
REMARK   60  A    between atoms: _145  and  _148
REMARK   61  A    between atoms: _151  and  _153
REMARK   62  A    between atoms: _153  and  _154
REMARK   63  A    between atoms: _157  and  _159
REMARK   64  A    between atoms: _159  and  _160
REMARK   65  A    between atoms: _159  and  _162
REMARK   66  A    between atoms: _162  and  _163
REMARK   67  A    between atoms: _166  and  _168
REMARK   68  A    between atoms: _168  and  _169
REMARK   69  A    between atoms: _168  and  _171
REMARK   70  A    between atoms: _171  and  _172
REMARK   71  A    between atoms: _175  and  _177
REMARK   72  A    between atoms: _177  and  _178
REMARK   73  A    between atoms: _181  and  _183
REMARK   74  A    between atoms: _183  and  _184
REMARK   75  A    between atoms: _187  and  _189
REMARK   76  A    between atoms: _189  and  _190
REMARK   77  A    between atoms: _189  and  _192
REMARK   78  A    between atoms: _192  and  _193
REMARK   79  A    between atoms: _193  and  _194
REMARK   80  A    between atoms: _197  and  _199
REMARK   81  A    between atoms: _199  and  _200
REMARK   82  A    between atoms: _203  and  _205
REMARK   83  A    between atoms: _205  and  _206
REMARK   84  A    between atoms: _205  and  _208
REMARK   85  A    between atoms: _208  and  _209
REMARK   86  A    between atoms: _212  and  _214
REMARK   87  A    between atoms: _214  and  _215
REMARK   88  A    between atoms: _214  and  _217
REMARK   89  A    between atoms: _217  and  _218
REMARK   90  A    between atoms: _223  and  _225
REMARK   91  A    between atoms: _225  and  _226
REMARK   92  A    between atoms: _228  and  _230
REMARK   93  A    between atoms: _230  and  _231
REMARK   94  A    between atoms: _230  and  _233
REMARK   95  A    between atoms: _233  and  _234
REMARK   96  A    between atoms: _234  and  _235
REMARK   97  A    between atoms: _238  and  _240
REMARK   98  A    between atoms: _240  and  _241
REMARK   99  A    between atoms: _240  and  _243
REMARK  100  A    between atoms: _243  and  _244
REMARK  101  A    between atoms: _249  and  _251
REMARK  102  A    between atoms: _251  and  _252
REMARK  103  A    between atoms: _251  and  _254
REMARK  104  A    between atoms: _257  and  _259
REMARK  105  A    between atoms: _259  and  _260
REMARK  106  A    between atoms: _259  and  _262
REMARK  107  A    between atoms: _262  and  _263
REMARK  108  A    between atoms: _263  and  _264
REMARK  109  A    between atoms: _266  and  _268
REMARK  110  A    between atoms: _268  and  _269
REMARK  111  A    between atoms: _272  and  _274
REMARK  112  A    between atoms: _274  and  _275
REMARK  113  A    between atoms: _274  and  _277
REMARK  114  A    between atoms: _277  and  _278
REMARK  115  A    between atoms: _281  and  _283
REMARK  116  A    between atoms: _283  and  _284
REMARK  117  A    between atoms: _283  and  _286
REMARK  118  A    between atoms: _286  and  _287
REMARK  119  A    between atoms: _290  and  _292
REMARK  120  A    between atoms: _292  and  _293
REMARK  121  A    between atoms: _292  and  _295
REMARK  122  A    between atoms: _295  and  _296
REMARK  123  A    between atoms: _302  and  _304
REMARK  124  A    between atoms: _304  and  _305
REMARK  125  A    between atoms: _308  and  _310
REMARK  126  A    between atoms: _310  and  _311
REMARK  127  A    between atoms: _310  and  _313
REMARK  128  A    between atoms: _313  and  _314
REMARK  129  A    between atoms: _317  and  _319
REMARK  130  A    between atoms: _319  and  _320
REMARK  131  A    between atoms: _319  and  _322
REMARK  132  A    between atoms: _322  and  _323
REMARK  133  A    between atoms: _323  and  _324
REMARK  134  A    between atoms: _324  and  _325
REMARK  135  A    between atoms: _334  and  _336
REMARK  136  A    between atoms: _336  and  _337
REMARK  137  A    between atoms: _336  and  _339
REMARK  138  A    between atoms: _339  and  _340
REMARK  139  A    between atoms: _343  and  _345
REMARK  140  A    between atoms: _345  and  _346
REMARK  141  A    between atoms: _345  and  _348
REMARK  142  A    between atoms: _348  and  _349
REMARK  143  A    between atoms: _349  and  _350
REMARK  144  A    between atoms: _350  and  _351
REMARK  145  A    between atoms: _360  and  _362
REMARK  146  A    between atoms: _362  and  _363
REMARK  147  A    between atoms: _362  and  _365
REMARK  148  A    between atoms: _365  and  _366
REMARK  149  A    between atoms: _371  and  _372
REMARK  150  A    between atoms: _374  and  _376
REMARK  151  A    between atoms: _376  and  _377
REMARK  152  A    between atoms: _376  and  _379
REMARK  153  A    between atoms: _382  and  _384
REMARK  154  A    between atoms: _384  and  _385
REMARK  155  A    between atoms: _388  and  _390
REMARK  156  A    between atoms: _390  and  _391
REMARK  157  A    between atoms: _390  and  _393
REMARK  158  A    between atoms: _393  and  _394
REMARK  159  A    between atoms: _396  and  _398
REMARK  160  A    between atoms: _398  and  _399
REMARK  161  A    between atoms: _398  and  _401
REMARK  162  A    between atoms: _401  and  _402
REMARK  163  A    between atoms: _407  and  _409
REMARK  164  A    between atoms: _409  and  _410
REMARK  165  A    between atoms: _413  and  _415
REMARK  166  A    between atoms: _415  and  _416
REMARK  167  A    between atoms: _419  and  _421
REMARK  168  A    between atoms: _421  and  _422
REMARK  169  A    between atoms: _421  and  _424
REMARK  170  A    between atoms: _424  and  _425
REMARK  171  A    between atoms: _430  and  _431
REMARK  172  A    between atoms: _433  and  _435
REMARK  173  A    between atoms: _435  and  _436
REMARK  174  A    between atoms: _435  and  _438
REMARK  175  A    between atoms: _438  and  _439
REMARK  176  A    between atoms: _441  and  _443
REMARK  177  A    between atoms: _443  and  _444
REMARK  178  A    between atoms: _447  and  _449
REMARK  179  A    between atoms: _449  and  _450
REMARK  180  A    between atoms: _449  and  _452
REMARK  181  A    between atoms: _452  and  _453
REMARK  182  A    between atoms: _453  and  _454
REMARK  183  A    between atoms: _454  and  _455
REMARK  184  A    between atoms: _464  and  _466
REMARK  185  A    between atoms: _466  and  _467
REMARK  186  A    between atoms: _466  and  _469
REMARK  187  A    between atoms: _472  and  _474
REMARK  188  A    between atoms: _474  and  _475
REMARK  189  A    between atoms: _474  and  _477
REMARK  190  A    between atoms: _477  and  _478
REMARK  191  A    between atoms: _478  and  _479
REMARK  192  A    between atoms: _482  and  _484
REMARK  193  A    between atoms: _484  and  _485
REMARK  194  A    between atoms: _484  and  _487
REMARK  195  A    between atoms: _487  and  _488
REMARK  196  A    between atoms: _490  and  _492
REMARK  197  A    between atoms: _492  and  _493
REMARK  198  A    between atoms: _492  and  _495
REMARK  199  A    between atoms: _495  and  _496
REMARK  200  A    between atoms: _496  and  _497
REMARK  201  A    between atoms: _497  and  _498
REMARK  202  A    between atoms: _507  and  _509
REMARK  203  A    between atoms: _509  and  _510
REMARK  204  A    between atoms: _513  and  _515
REMARK  205  A    between atoms: _515  and  _516
REMARK  206  A    between atoms: _515  and  _518
REMARK  207  A    between atoms: _518  and  _519
REMARK  208  A    between atoms: _519  and  _520
REMARK  209  A    between atoms: _520  and  _521
REMARK  210  A    between atoms: _530  and  _532
REMARK  211  A    between atoms: _532  and  _533
REMARK  212  A    between atoms: _532  and  _535
REMARK  213  A    between atoms: _535  and  _536
REMARK  214  A    between atoms: _539  and  _541
REMARK  215  A    between atoms: _541  and  _542
REMARK  216  A    between atoms: _544  and  _546
REMARK  217  A    between atoms: _546  and  _547
REMARK  218  A    between atoms: _546  and  _549
REMARK  219  A    between atoms: _549  and  _550
REMARK  220  A    between atoms: _550  and  _551
REMARK  221  A    between atoms: _551  and  _552
REMARK  222  A    between atoms: _561  and  _563
REMARK  223  A    between atoms: _563  and  _564
REMARK  224  A    between atoms: _567  and  _569
REMARK  225  A    between atoms: _569  and  _570
REMARK  226  A    between atoms: _569  and  _572
REMARK  227  A    between atoms: _572  and  _573
REMARK  228  A    between atoms: _573  and  _574
REMARK  229  A    between atoms: _574  and  _575
REMARK  230  A    between atoms: _584  and  _586
REMARK  231  A    between atoms: _586  and  _587
REMARK  232  A    between atoms: _586  and  _589
REMARK  233  A    between atoms: _589  and  _590
REMARK  234  A    between atoms: _593  and  _595
REMARK  235  A    between atoms: _595  and  _596
REMARK  236  A    between atoms: _595  and  _598
REMARK  237  A    between atoms: _598  and  _599
REMARK  238  A    between atoms: _604  and  _606
REMARK  239  A    between atoms: _606  and  _607
REMARK  240  A    between atoms: _606  and  _609
REMARK  241  A    between atoms: _609  and  _610
REMARK  242  A    between atoms: _615  and  _616
REMARK  243  A    between atoms: _618  and  _620
REMARK  244  A    between atoms: _620  and  _621
REMARK  245  A    between atoms: _620  and  _623
REMARK  246  A    between atoms: _623  and  _624
REMARK  247  A    between atoms: _624  and  _625
REMARK  248  A    between atoms: _625  and  _627
REMARK  249  A    between atoms: _627  and  MG_715
REMARK  250  A    between atoms: _628  and  _630
REMARK  251  A    between atoms: _630  and  _631
REMARK  252  A    between atoms: _630  and  _633
REMARK  253  A    between atoms: _633  and  _634
REMARK  254  A    between atoms: _634  and  _635
REMARK  255  A    between atoms: _635  and  _636
REMARK  256  A    between atoms: _645  and  _647
REMARK  257  A    between atoms: _647  and  _648
REMARK  258  A    between atoms: _647  and  _650
REMARK  259  A    between atoms: _650  and  _651
REMARK  260  A    between atoms: _654  and  _656
REMARK  261  A    between atoms: _656  and  _657
REMARK  262  A    between atoms: _656  and  _659
REMARK  263  A    between atoms: _659  and  _660
REMARK  264  A    between atoms: _663  and  _665
REMARK  265  A    between atoms: _665  and  _666
REMARK  266  A    between atoms: _665  and  _668
REMARK  267  A    between atoms: _668  and  _669
REMARK  268  A    between atoms: _669  and  _670
REMARK  269  A    between atoms: _675  and  _677
REMARK  270  A    between atoms: _677  and  _678
REMARK  271  A    between atoms: _677  and  _680
REMARK  272  A    between atoms: _680  and  _681
REMARK  273  A    between atoms: _684  and  _686
REMARK  274  A    between atoms: _686  and  _687
REMARK  275  A    between atoms: _686  and  _689
REMARK  276  A    between atoms: _689  and  _690
REMARK  277  A    between atoms: _695  and  _696
REMARK  278  A    between atoms: _698  and  _700
REMARK  279  A    between atoms: _700  and  _701
REMARK  280  A    between atoms: _700  and  _703
REMARK  281  A    between atoms: _703  and  _704
REMARK  282  A    between atoms: _704  and  _705
REMARK  283  A    between atoms: _705  and  _706
REMARK                            x       y       z     vdW  Elec       q    Type
REMARK                         _______ _______ _______ _____ _____    ______ ____
ROOT
ATOM      1  O   HOH     1      17.413  19.344  10.584  0.00  0.00    +0.000 OA
ENDROOT
TORSDOF 0
REMARK  Name = ../refined-set-2016/1mrn/1mrn_pocket.pdb
REMARK  283 active torsions:
REMARK  status: ('A' for Active; 'I' for Inactive)
REMARK    1  A    between atoms: _1  and  _3
REMARK    2  A    between atoms: _3  and  _4
REMARK    3  A    between atoms: _3  and  _6
REMARK    4  A    between atoms: _6  and  _7
REMARK    5  A    between atoms: _7  and  _8
REMARK    6  A    between atoms: _11  and  _13
REMARK    7  A    between atoms: _13  and  _14
REMARK    8  A    between atoms: _16  and  _18
REMARK    9  A    between atoms: _18  and  _19
REMARK   10  A    between atoms: _18  and  _21
REMARK   11  A    between atoms: _24  and  _26
REMARK   12  A    between atoms: _26  and  _27
REMARK   13  A    between atoms: _26  and  _29
REMARK   14  A    between atoms: _29  and  _30
REMARK   15  A    between atoms: _30  and  _31
REMARK   16  A    between atoms: _31  and  MG_715
REMARK   17  A    between atoms: _33  and  _35
REMARK   18  A    between atoms: _35  and  _36
REMARK   19  A    between atoms: _38  and  _40
REMARK   20  A    between atoms: _40  and  _41
REMARK   21  A    between atoms: _44  and  _46
REMARK   22  A    between atoms: _46  and  _47
REMARK   23  A    between atoms: _46  and  _49
REMARK   24  A    between atoms: _49  and  _50
REMARK   25  A    between atoms: _50  and  _51
REMARK   26  A    between atoms: _51  and  _52
REMARK   27  A    between atoms: _52  and  _53
REMARK   28  A    between atoms: _57  and  _59
REMARK   29  A    between atoms: _59  and  _60
REMARK   30  A    between atoms: _59  and  _62
REMARK   31  A    between atoms: _62  and  _63
REMARK   32  A    between atoms: _63  and  _64
REMARK   33  A    between atoms: _64  and  _65
REMARK   34  A    between atoms: _74  and  _76
REMARK   35  A    between atoms: _76  and  _77
REMARK   36  A    between atoms: _80  and  _82
REMARK   37  A    between atoms: _82  and  _83
REMARK   38  A    between atoms: _82  and  _85
REMARK   39  A    between atoms: _85  and  _86
REMARK   40  A    between atoms: _93  and  _94
REMARK   41  A    between atoms: _99  and  _101
REMARK   42  A    between atoms: _101  and  _102
REMARK   43  A    between atoms: _101  and  _104
REMARK   44  A    between atoms: _104  and  _105
REMARK   45  A    between atoms: _105  and  _106
REMARK   46  A    between atoms: _106  and  _107
REMARK   47  A    between atoms: _116  and  _118
REMARK   48  A    between atoms: _118  and  _119
REMARK   49  A    between atoms: _118  and  _121
REMARK   50  A    between atoms: _121  and  _122
REMARK   51  A    between atoms: _127  and  _128
REMARK   52  A    between atoms: _130  and  _132
REMARK   53  A    between atoms: _132  and  _133
REMARK   54  A    between atoms: _135  and  _137
REMARK   55  A    between atoms: _137  and  _138
REMARK   56  A    between atoms: _137  and  _140
REMARK   57  A    between atoms: _140  and  _141
REMARK   58  A    between atoms: _143  and  _145
REMARK   59  A    between atoms: _145  and  _146
REMARK   60  A    between atoms: _145  and  _148
REMARK   61  A    between atoms: _151  and  _153
REMARK   62  A    between atoms: _153  and  _154
REMARK   63  A    between atoms: _157  and  _159
REMARK   64  A    between atoms: _159  and  _160
REMARK   65  A    between atoms: _159  and  _162
REMARK   66  A    between atoms: _162  and  _163
REMARK   67  A    between atoms: _166  and  _168
REMARK   68  A    between atoms: _168  and  _169
REMARK   69  A    between atoms: _168  and  _171
REMARK   70  A    between atoms: _171  and  _172
REMARK   71  A    between atoms: _175  and  _177
REMARK   72  A    between atoms: _177  and  _178
REMARK   73  A    between atoms: _181  and  _183
REMARK   74  A    between atoms: _183  and  _184
REMARK   75  A    between atoms: _187  and  _189
REMARK   76  A    between atoms: _189  and  _190
REMARK   77  A    between atoms: _189  and  _192
REMARK   78  A    between atoms: _192  and  _193
REMARK   79  A    between atoms: _193  and  _194
REMARK   80  A    between atoms: _197  and  _199
REMARK   81  A    between atoms: _199  and  _200
REMARK   82  A    between atoms: _203  and  _205
REMARK   83  A    between atoms: _205  and  _206
REMARK   84  A    between atoms: _205  and  _208
REMARK   85  A    between atoms: _208  and  _209
REMARK   86  A    between atoms: _212  and  _214
REMARK   87  A    between atoms: _214  and  _215
REMARK   88  A    between atoms: _214  and  _217
REMARK   89  A    between atoms: _217  and  _218
REMARK   90  A    between atoms: _223  and  _225
REMARK   91  A    between atoms: _225  and  _226
REMARK   92  A    between atoms: _228  and  _230
REMARK   93  A    between atoms: _230  and  _231
REMARK   94  A    between atoms: _230  and  _233
REMARK   95  A    between atoms: _233  and  _234
REMARK   96  A    between atoms: _234  and  _235
REMARK   97  A    between atoms: _238  and  _240
REMARK   98  A    between atoms: _240  and  _241
REMARK   99  A    between atoms: _240  and  _243
REMARK  100  A    between atoms: _243  and  _244
REMARK  101  A    between atoms: _249  and  _251
REMARK  102  A    between atoms: _251  and  _252
REMARK  103  A    between atoms: _251  and  _254
REMARK  104  A    between atoms: _257  and  _259
REMARK  105  A    between atoms: _259  and  _260
REMARK  106  A    between atoms: _259  and  _262
REMARK  107  A    between atoms: _262  and  _263
REMARK  108  A    between atoms: _263  and  _264
REMARK  109  A    between atoms: _266  and  _268
REMARK  110  A    between atoms: _268  and  _269
REMARK  111  A    between atoms: _272  and  _274
REMARK  112  A    between atoms: _274  and  _275
REMARK  113  A    between atoms: _274  and  _277
REMARK  114  A    between atoms: _277  and  _278
REMARK  115  A    between atoms: _281  and  _283
REMARK  116  A    between atoms: _283  and  _284
REMARK  117  A    between atoms: _283  and  _286
REMARK  118  A    between atoms: _286  and  _287
REMARK  119  A    between atoms: _290  and  _292
REMARK  120  A    between atoms: _292  and  _293
REMARK  121  A    between atoms: _292  and  _295
REMARK  122  A    between atoms: _295  and  _296
REMARK  123  A    between atoms: _302  and  _304
REMARK  124  A    between atoms: _304  and  _305
REMARK  125  A    between atoms: _308  and  _310
REMARK  126  A    between atoms: _310  and  _311
REMARK  127  A    between atoms: _310  and  _313
REMARK  128  A    between atoms: _313  and  _314
REMARK  129  A    between atoms: _317  and  _319
REMARK  130  A    between atoms: _319  and  _320
REMARK  131  A    between atoms: _319  and  _322
REMARK  132  A    between atoms: _322  and  _323
REMARK  133  A    between atoms: _323  and  _324
REMARK  134  A    between atoms: _324  and  _325
REMARK  135  A    between atoms: _334  and  _336
REMARK  136  A    between atoms: _336  and  _337
REMARK  137  A    between atoms: _336  and  _339
REMARK  138  A    between atoms: _339  and  _340
REMARK  139  A    between atoms: _343  and  _345
REMARK  140  A    between atoms: _345  and  _346
REMARK  141  A    between atoms: _345  and  _348
REMARK  142  A    between atoms: _348  and  _349
REMARK  143  A    between atoms: _349  and  _350
REMARK  144  A    between atoms: _350  and  _351
REMARK  145  A    between atoms: _360  and  _362
REMARK  146  A    between atoms: _362  and  _363
REMARK  147  A    between atoms: _362  and  _365
REMARK  148  A    between atoms: _365  and  _366
REMARK  149  A    between atoms: _371  and  _372
REMARK  150  A    between atoms: _374  and  _376
REMARK  151  A    between atoms: _376  and  _377
REMARK  152  A    between atoms: _376  and  _379
REMARK  153  A    between atoms: _382  and  _384
REMARK  154  A    between atoms: _384  and  _385
REMARK  155  A    between atoms: _388  and  _390
REMARK  156  A    between atoms: _390  and  _391
REMARK  157  A    between atoms: _390  and  _393
REMARK  158  A    between atoms: _393  and  _394
REMARK  159  A    between atoms: _396  and  _398
REMARK  160  A    between atoms: _398  and  _399
REMARK  161  A    between atoms: _398  and  _401
REMARK  162  A    between atoms: _401  and  _402
REMARK  163  A    between atoms: _407  and  _409
REMARK  164  A    between atoms: _409  and  _410
REMARK  165  A    between atoms: _413  and  _415
REMARK  166  A    between atoms: _415  and  _416
REMARK  167  A    between atoms: _419  and  _421
REMARK  168  A    between atoms: _421  and  _422
REMARK  169  A    between atoms: _421  and  _424
REMARK  170  A    between atoms: _424  and  _425
REMARK  171  A    between atoms: _430  and  _431
REMARK  172  A    between atoms: _433  and  _435
REMARK  173  A    between atoms: _435  and  _436
REMARK  174  A    between atoms: _435  and  _438
REMARK  175  A    between atoms: _438  and  _439
REMARK  176  A    between atoms: _441  and  _443
REMARK  177  A    between atoms: _443  and  _444
REMARK  178  A    between atoms: _447  and  _449
REMARK  179  A    between atoms: _449  and  _450
REMARK  180  A    between atoms: _449  and  _452
REMARK  181  A    between atoms: _452  and  _453
REMARK  182  A    between atoms: _453  and  _454
REMARK  183  A    between atoms: _454  and  _455
REMARK  184  A    between atoms: _464  and  _466
REMARK  185  A    between atoms: _466  and  _467
REMARK  186  A    between atoms: _466  and  _469
REMARK  187  A    between atoms: _472  and  _474
REMARK  188  A    between atoms: _474  and  _475
REMARK  189  A    between atoms: _474  and  _477
REMARK  190  A    between atoms: _477  and  _478
REMARK  191  A    between atoms: _478  and  _479
REMARK  192  A    between atoms: _482  and  _484
REMARK  193  A    between atoms: _484  and  _485
REMARK  194  A    between atoms: _484  and  _487
REMARK  195  A    between atoms: _487  and  _488
REMARK  196  A    between atoms: _490  and  _492
REMARK  197  A    between atoms: _492  and  _493
REMARK  198  A    between atoms: _492  and  _495
REMARK  199  A    between atoms: _495  and  _496
REMARK  200  A    between atoms: _496  and  _497
REMARK  201  A    between atoms: _497  and  _498
REMARK  202  A    between atoms: _507  and  _509
REMARK  203  A    between atoms: _509  and  _510
REMARK  204  A    between atoms: _513  and  _515
REMARK  205  A    between atoms: _515  and  _516
REMARK  206  A    between atoms: _515  and  _518
REMARK  207  A    between atoms: _518  and  _519
REMARK  208  A    between atoms: _519  and  _520
REMARK  209  A    between atoms: _520  and  _521
REMARK  210  A    between atoms: _530  and  _532
REMARK  211  A    between atoms: _532  and  _533
REMARK  212  A    between atoms: _532  and  _535
REMARK  213  A    between atoms: _535  and  _536
REMARK  214  A    between atoms: _539  and  _541
REMARK  215  A    between atoms: _541  and  _542
REMARK  216  A    between atoms: _544  and  _546
REMARK  217  A    between atoms: _546  and  _547
REMARK  218  A    between atoms: _546  and  _549
REMARK  219  A    between atoms: _549  and  _550
REMARK  220  A    between atoms: _550  and  _551
REMARK  221  A    between atoms: _551  and  _552
REMARK  222  A    between atoms: _561  and  _563
REMARK  223  A    between atoms: _563  and  _564
REMARK  224  A    between atoms: _567  and  _569
REMARK  225  A    between atoms: _569  and  _570
REMARK  226  A    between atoms: _569  and  _572
REMARK  227  A    between atoms: _572  and  _573
REMARK  228  A    between atoms: _573  and  _574
REMARK  229  A    between atoms: _574  and  _575
REMARK  230  A    between atoms: _584  and  _586
REMARK  231  A    between atoms: _586  and  _587
REMARK  232  A    between atoms: _586  and  _589
REMARK  233  A    between atoms: _589  and  _590
REMARK  234  A    between atoms: _593  and  _595
REMARK  235  A    between atoms: _595  and  _596
REMARK  236  A    between atoms: _595  and  _598
REMARK  237  A    between atoms: _598  and  _599
REMARK  238  A    between atoms: _604  and  _606
REMARK  239  A    between atoms: _606  and  _607
REMARK  240  A    between atoms: _606  and  _609
REMARK  241  A    between atoms: _609  and  _610
REMARK  242  A    between atoms: _615  and  _616
REMARK  243  A    between atoms: _618  and  _620
REMARK  244  A    between atoms: _620  and  _621
REMARK  245  A    between atoms: _620  and  _623
REMARK  246  A    between atoms: _623  and  _624
REMARK  247  A    between atoms: _624  and  _625
REMARK  248  A    between atoms: _625  and  _627
REMARK  249  A    between atoms: _627  and  MG_715
REMARK  250  A    between atoms: _628  and  _630
REMARK  251  A    between atoms: _630  and  _631
REMARK  252  A    between atoms: _630  and  _633
REMARK  253  A    between atoms: _633  and  _634
REMARK  254  A    between atoms: _634  and  _635
REMARK  255  A    between atoms: _635  and  _636
REMARK  256  A    between atoms: _645  and  _647
REMARK  257  A    between atoms: _647  and  _648
REMARK  258  A    between atoms: _647  and  _650
REMARK  259  A    between atoms: _650  and  _651
REMARK  260  A    between atoms: _654  and  _656
REMARK  261  A    between atoms: _656  and  _657
REMARK  262  A    between atoms: _656  and  _659
REMARK  263  A    between atoms: _659  and  _660
REMARK  264  A    between atoms: _663  and  _665
REMARK  265  A    between atoms: _665  and  _666
REMARK  266  A    between atoms: _665  and  _668
REMARK  267  A    between atoms: _668  and  _669
REMARK  268  A    between atoms: _669  and  _670
REMARK  269  A    between atoms: _675  and  _677
REMARK  270  A    between atoms: _677  and  _678
REMARK  271  A    between atoms: _677  and  _680
REMARK  272  A    between atoms: _680  and  _681
REMARK  273  A    between atoms: _684  and  _686
REMARK  274  A    between atoms: _686  and  _687
REMARK  275  A    between atoms: _686  and  _689
REMARK  276  A    between atoms: _689  and  _690
REMARK  277  A    between atoms: _695  and  _696
REMARK  278  A    between atoms: _698  and  _700
REMARK  279  A    between atoms: _700  and  _701
REMARK  280  A    between atoms: _700  and  _703
REMARK  281  A    between atoms: _703  and  _704
REMARK  282  A    between atoms: _704  and  _705
REMARK  283  A    between atoms: _705  and  _706
REMARK                            x       y       z     vdW  Elec       q    Type
REMARK                         _______ _______ _______ _____ _____    ______ ____
ROOT
ATOM      1  O   HOH     1      19.598  10.967  -9.807  0.00  0.00    +0.000 OA
ENDROOT
TORSDOF 0
REMARK  Name = ../refined-set-2016/1mrn/1mrn_pocket.pdb
REMARK  283 active torsions:
REMARK  status: ('A' for Active; 'I' for Inactive)
REMARK    1  A    between atoms: _1  and  _3
REMARK    2  A    between atoms: _3  and  _4
REMARK    3  A    between atoms: _3  and  _6
REMARK    4  A    between atoms: _6  and  _7
REMARK    5  A    between atoms: _7  and  _8
REMARK    6  A    between atoms: _11  and  _13
REMARK    7  A    between atoms: _13  and  _14
REMARK    8  A    between atoms: _16  and  _18
REMARK    9  A    between atoms: _18  and  _19
REMARK   10  A    between atoms: _18  and  _21
REMARK   11  A    between atoms: _24  and  _26
REMARK   12  A    between atoms: _26  and  _27
REMARK   13  A    between atoms: _26  and  _29
REMARK   14  A    between atoms: _29  and  _30
REMARK   15  A    between atoms: _30  and  _31
REMARK   16  A    between atoms: _31  and  MG_715
REMARK   17  A    between atoms: _33  and  _35
REMARK   18  A    between atoms: _35  and  _36
REMARK   19  A    between atoms: _38  and  _40
REMARK   20  A    between atoms: _40  and  _41
REMARK   21  A    between atoms: _44  and  _46
REMARK   22  A    between atoms: _46  and  _47
REMARK   23  A    between atoms: _46  and  _49
REMARK   24  A    between atoms: _49  and  _50
REMARK   25  A    between atoms: _50  and  _51
REMARK   26  A    between atoms: _51  and  _52
REMARK   27  A    between atoms: _52  and  _53
REMARK   28  A    between atoms: _57  and  _59
REMARK   29  A    between atoms: _59  and  _60
REMARK   30  A    between atoms: _59  and  _62
REMARK   31  A    between atoms: _62  and  _63
REMARK   32  A    between atoms: _63  and  _64
REMARK   33  A    between atoms: _64  and  _65
REMARK   34  A    between atoms: _74  and  _76
REMARK   35  A    between atoms: _76  and  _77
REMARK   36  A    between atoms: _80  and  _82
REMARK   37  A    between atoms: _82  and  _83
REMARK   38  A    between atoms: _82  and  _85
REMARK   39  A    between atoms: _85  and  _86
REMARK   40  A    between atoms: _93  and  _94
REMARK   41  A    between atoms: _99  and  _101
REMARK   42  A    between atoms: _101  and  _102
REMARK   43  A    between atoms: _101  and  _104
REMARK   44  A    between atoms: _104  and  _105
REMARK   45  A    between atoms: _105  and  _106
REMARK   46  A    between atoms: _106  and  _107
REMARK   47  A    between atoms: _116  and  _118
REMARK   48  A    between atoms: _118  and  _119
REMARK   49  A    between atoms: _118  and  _121
REMARK   50  A    between atoms: _121  and  _122
REMARK   51  A    between atoms: _127  and  _128
REMARK   52  A    between atoms: _130  and  _132
REMARK   53  A    between atoms: _132  and  _133
REMARK   54  A    between atoms: _135  and  _137
REMARK   55  A    between atoms: _137  and  _138
REMARK   56  A    between atoms: _137  and  _140
REMARK   57  A    between atoms: _140  and  _141
REMARK   58  A    between atoms: _143  and  _145
REMARK   59  A    between atoms: _145  and  _146
REMARK   60  A    between atoms: _145  and  _148
REMARK   61  A    between atoms: _151  and  _153
REMARK   62  A    between atoms: _153  and  _154
REMARK   63  A    between atoms: _157  and  _159
REMARK   64  A    between atoms: _159  and  _160
REMARK   65  A    between atoms: _159  and  _162
REMARK   66  A    between atoms: _162  and  _163
REMARK   67  A    between atoms: _166  and  _168
REMARK   68  A    between atoms: _168  and  _169
REMARK   69  A    between atoms: _168  and  _171
REMARK   70  A    between atoms: _171  and  _172
REMARK   71  A    between atoms: _175  and  _177
REMARK   72  A    between atoms: _177  and  _178
REMARK   73  A    between atoms: _181  and  _183
REMARK   74  A    between atoms: _183  and  _184
REMARK   75  A    between atoms: _187  and  _189
REMARK   76  A    between atoms: _189  and  _190
REMARK   77  A    between atoms: _189  and  _192
REMARK   78  A    between atoms: _192  and  _193
REMARK   79  A    between atoms: _193  and  _194
REMARK   80  A    between atoms: _197  and  _199
REMARK   81  A    between atoms: _199  and  _200
REMARK   82  A    between atoms: _203  and  _205
REMARK   83  A    between atoms: _205  and  _206
REMARK   84  A    between atoms: _205  and  _208
REMARK   85  A    between atoms: _208  and  _209
REMARK   86  A    between atoms: _212  and  _214
REMARK   87  A    between atoms: _214  and  _215
REMARK   88  A    between atoms: _214  and  _217
REMARK   89  A    between atoms: _217  and  _218
REMARK   90  A    between atoms: _223  and  _225
REMARK   91  A    between atoms: _225  and  _226
REMARK   92  A    between atoms: _228  and  _230
REMARK   93  A    between atoms: _230  and  _231
REMARK   94  A    between atoms: _230  and  _233
REMARK   95  A    between atoms: _233  and  _234
REMARK   96  A    between atoms: _234  and  _235
REMARK   97  A    between atoms: _238  and  _240
REMARK   98  A    between atoms: _240  and  _241
REMARK   99  A    between atoms: _240  and  _243
REMARK  100  A    between atoms: _243  and  _244
REMARK  101  A    between atoms: _249  and  _251
REMARK  102  A    between atoms: _251  and  _252
REMARK  103  A    between atoms: _251  and  _254
REMARK  104  A    between atoms: _257  and  _259
REMARK  105  A    between atoms: _259  and  _260
REMARK  106  A    between atoms: _259  and  _262
REMARK  107  A    between atoms: _262  and  _263
REMARK  108  A    between atoms: _263  and  _264
REMARK  109  A    between atoms: _266  and  _268
REMARK  110  A    between atoms: _268  and  _269
REMARK  111  A    between atoms: _272  and  _274
REMARK  112  A    between atoms: _274  and  _275
REMARK  113  A    between atoms: _274  and  _277
REMARK  114  A    between atoms: _277  and  _278
REMARK  115  A    between atoms: _281  and  _283
REMARK  116  A    between atoms: _283  and  _284
REMARK  117  A    between atoms: _283  and  _286
REMARK  118  A    between atoms: _286  and  _287
REMARK  119  A    between atoms: _290  and  _292
REMARK  120  A    between atoms: _292  and  _293
REMARK  121  A    between atoms: _292  and  _295
REMARK  122  A    between atoms: _295  and  _296
REMARK  123  A    between atoms: _302  and  _304
REMARK  124  A    between atoms: _304  and  _305
REMARK  125  A    between atoms: _308  and  _310
REMARK  126  A    between atoms: _310  and  _311
REMARK  127  A    between atoms: _310  and  _313
REMARK  128  A    between atoms: _313  and  _314
REMARK  129  A    between atoms: _317  and  _319
REMARK  130  A    between atoms: _319  and  _320
REMARK  131  A    between atoms: _319  and  _322
REMARK  132  A    between atoms: _322  and  _323
REMARK  133  A    between atoms: _323  and  _324
REMARK  134  A    between atoms: _324  and  _325
REMARK  135  A    between atoms: _334  and  _336
REMARK  136  A    between atoms: _336  and  _337
REMARK  137  A    between atoms: _336  and  _339
REMARK  138  A    between atoms: _339  and  _340
REMARK  139  A    between atoms: _343  and  _345
REMARK  140  A    between atoms: _345  and  _346
REMARK  141  A    between atoms: _345  and  _348
REMARK  142  A    between atoms: _348  and  _349
REMARK  143  A    between atoms: _349  and  _350
REMARK  144  A    between atoms: _350  and  _351
REMARK  145  A    between atoms: _360  and  _362
REMARK  146  A    between atoms: _362  and  _363
REMARK  147  A    between atoms: _362  and  _365
REMARK  148  A    between atoms: _365  and  _366
REMARK  149  A    between atoms: _371  and  _372
REMARK  150  A    between atoms: _374  and  _376
REMARK  151  A    between atoms: _376  and  _377
REMARK  152  A    between atoms: _376  and  _379
REMARK  153  A    between atoms: _382  and  _384
REMARK  154  A    between atoms: _384  and  _385
REMARK  155  A    between atoms: _388  and  _390
REMARK  156  A    between atoms: _390  and  _391
REMARK  157  A    between atoms: _390  and  _393
REMARK  158  A    between atoms: _393  and  _394
REMARK  159  A    between atoms: _396  and  _398
REMARK  160  A    between atoms: _398  and  _399
REMARK  161  A    between atoms: _398  and  _401
REMARK  162  A    between atoms: _401  and  _402
REMARK  163  A    between atoms: _407  and  _409
REMARK  164  A    between atoms: _409  and  _410
REMARK  165  A    between atoms: _413  and  _415
REMARK  166  A    between atoms: _415  and  _416
REMARK  167  A    between atoms: _419  and  _421
REMARK  168  A    between atoms: _421  and  _422
REMARK  169  A    between atoms: _421  and  _424
REMARK  170  A    between atoms: _424  and  _425
REMARK  171  A    between atoms: _430  and  _431
REMARK  172  A    between atoms: _433  and  _435
REMARK  173  A    between atoms: _435  and  _436
REMARK  174  A    between atoms: _435  and  _438
REMARK  175  A    between atoms: _438  and  _439
REMARK  176  A    between atoms: _441  and  _443
REMARK  177  A    between atoms: _443  and  _444
REMARK  178  A    between atoms: _447  and  _449
REMARK  179  A    between atoms: _449  and  _450
REMARK  180  A    between atoms: _449  and  _452
REMARK  181  A    between atoms: _452  and  _453
REMARK  182  A    between atoms: _453  and  _454
REMARK  183  A    between atoms: _454  and  _455
REMARK  184  A    between atoms: _464  and  _466
REMARK  185  A    between atoms: _466  and  _467
REMARK  186  A    between atoms: _466  and  _469
REMARK  187  A    between atoms: _472  and  _474
REMARK  188  A    between atoms: _474  and  _475
REMARK  189  A    between atoms: _474  and  _477
REMARK  190  A    between atoms: _477  and  _478
REMARK  191  A    between atoms: _478  and  _479
REMARK  192  A    between atoms: _482  and  _484
REMARK  193  A    between atoms: _484  and  _485
REMARK  194  A    between atoms: _484  and  _487
REMARK  195  A    between atoms: _487  and  _488
REMARK  196  A    between atoms: _490  and  _492
REMARK  197  A    between atoms: _492  and  _493
REMARK  198  A    between atoms: _492  and  _495
REMARK  199  A    between atoms: _495  and  _496
REMARK  200  A    between atoms: _496  and  _497
REMARK  201  A    between atoms: _497  and  _498
REMARK  202  A    between atoms: _507  and  _509
REMARK  203  A    between atoms: _509  and  _510
REMARK  204  A    between atoms: _513  and  _515
REMARK  205  A    between atoms: _515  and  _516
REMARK  206  A    between atoms: _515  and  _518
REMARK  207  A    between atoms: _518  and  _519
REMARK  208  A    between atoms: _519  and  _520
REMARK  209  A    between atoms: _520  and  _521
REMARK  210  A    between atoms: _530  and  _532
REMARK  211  A    between atoms: _532  and  _533
REMARK  212  A    between atoms: _532  and  _535
REMARK  213  A    between atoms: _535  and  _536
REMARK  214  A    between atoms: _539  and  _541
REMARK  215  A    between atoms: _541  and  _542
REMARK  216  A    between atoms: _544  and  _546
REMARK  217  A    between atoms: _546  and  _547
REMARK  218  A    between atoms: _546  and  _549
REMARK  219  A    between atoms: _549  and  _550
REMARK  220  A    between atoms: _550  and  _551
REMARK  221  A    between atoms: _551  and  _552
REMARK  222  A    between atoms: _561  and  _563
REMARK  223  A    between atoms: _563  and  _564
REMARK  224  A    between atoms: _567  and  _569
REMARK  225  A    between atoms: _569  and  _570
REMARK  226  A    between atoms: _569  and  _572
REMARK  227  A    between atoms: _572  and  _573
REMARK  228  A    between atoms: _573  and  _574
REMARK  229  A    between atoms: _574  and  _575
REMARK  230  A    between atoms: _584  and  _586
REMARK  231  A    between atoms: _586  and  _587
REMARK  232  A    between atoms: _586  and  _589
REMARK  233  A    between atoms: _589  and  _590
REMARK  234  A    between atoms: _593  and  _595
REMARK  235  A    between atoms: _595  and  _596
REMARK  236  A    between atoms: _595  and  _598
REMARK  237  A    between atoms: _598  and  _599
REMARK  238  A    between atoms: _604  and  _606
REMARK  239  A    between atoms: _606  and  _607
REMARK  240  A    between atoms: _606  and  _609
REMARK  241  A    between atoms: _609  and  _610
REMARK  242  A    between atoms: _615  and  _616
REMARK  243  A    between atoms: _618  and  _620
REMARK  244  A    between atoms: _620  and  _621
REMARK  245  A    between atoms: _620  and  _623
REMARK  246  A    between atoms: _623  and  _624
REMARK  247  A    between atoms: _624  and  _625
REMARK  248  A    between atoms: _625  and  _627
REMARK  249  A    between atoms: _627  and  MG_715
REMARK  250  A    between atoms: _628  and  _630
REMARK  251  A    between atoms: _630  and  _631
REMARK  252  A    between atoms: _630  and  _633
REMARK  253  A    between atoms: _633  and  _634
REMARK  254  A    between atoms: _634  and  _635
REMARK  255  A    between atoms: _635  and  _636
REMARK  256  A    between atoms: _645  and  _647
REMARK  257  A    between atoms: _647  and  _648
REMARK  258  A    between atoms: _647  and  _650
REMARK  259  A    between atoms: _650  and  _651
REMARK  260  A    between atoms: _654  and  _656
REMARK  261  A    between atoms: _656  and  _657
REMARK  262  A    between atoms: _656  and  _659
REMARK  263  A    between atoms: _659  and  _660
REMARK  264  A    between atoms: _663  and  _665
REMARK  265  A    between atoms: _665  and  _666
REMARK  266  A    between atoms: _665  and  _668
REMARK  267  A    between atoms: _668  and  _669
REMARK  268  A    between atoms: _669  and  _670
REMARK  269  A    between atoms: _675  and  _677
REMARK  270  A    between atoms: _677  and  _678
REMARK  271  A    between atoms: _677  and  _680
REMARK  272  A    between atoms: _680  and  _681
REMARK  273  A    between atoms: _684  and  _686
REMARK  274  A    between atoms: _686  and  _687
REMARK  275  A    between atoms: _686  and  _689
REMARK  276  A    between atoms: _689  and  _690
REMARK  277  A    between atoms: _695  and  _696
REMARK  278  A    between atoms: _698  and  _700
REMARK  279  A    between atoms: _700  and  _701
REMARK  280  A    between atoms: _700  and  _703
REMARK  281  A    between atoms: _703  and  _704
REMARK  282  A    between atoms: _704  and  _705
REMARK  283  A    between atoms: _705  and  _706
REMARK                            x       y       z     vdW  Elec       q    Type
REMARK                         _______ _______ _______ _____ _____    ______ ____
ROOT
ATOM      1  O   HOH     1      20.819  22.196   6.349  0.00  0.00    +0.000 OA
ENDROOT
TORSDOF 0
REMARK  Name = ../refined-set-2016/1mrn/1mrn_pocket.pdb
REMARK  283 active torsions:
REMARK  status: ('A' for Active; 'I' for Inactive)
REMARK    1  A    between atoms: _1  and  _3
REMARK    2  A    between atoms: _3  and  _4
REMARK    3  A    between atoms: _3  and  _6
REMARK    4  A    between atoms: _6  and  _7
REMARK    5  A    between atoms: _7  and  _8
REMARK    6  A    between atoms: _11  and  _13
REMARK    7  A    between atoms: _13  and  _14
REMARK    8  A    between atoms: _16  and  _18
REMARK    9  A    between atoms: _18  and  _19
REMARK   10  A    between atoms: _18  and  _21
REMARK   11  A    between atoms: _24  and  _26
REMARK   12  A    between atoms: _26  and  _27
REMARK   13  A    between atoms: _26  and  _29
REMARK   14  A    between atoms: _29  and  _30
REMARK   15  A    between atoms: _30  and  _31
REMARK   16  A    between atoms: _31  and  MG_715
REMARK   17  A    between atoms: _33  and  _35
REMARK   18  A    between atoms: _35  and  _36
REMARK   19  A    between atoms: _38  and  _40
REMARK   20  A    between atoms: _40  and  _41
REMARK   21  A    between atoms: _44  and  _46
REMARK   22  A    between atoms: _46  and  _47
REMARK   23  A    between atoms: _46  and  _49
REMARK   24  A    between atoms: _49  and  _50
REMARK   25  A    between atoms: _50  and  _51
REMARK   26  A    between atoms: _51  and  _52
REMARK   27  A    between atoms: _52  and  _53
REMARK   28  A    between atoms: _57  and  _59
REMARK   29  A    between atoms: _59  and  _60
REMARK   30  A    between atoms: _59  and  _62
REMARK   31  A    between atoms: _62  and  _63
REMARK   32  A    between atoms: _63  and  _64
REMARK   33  A    between atoms: _64  and  _65
REMARK   34  A    between atoms: _74  and  _76
REMARK   35  A    between atoms: _76  and  _77
REMARK   36  A    between atoms: _80  and  _82
REMARK   37  A    between atoms: _82  and  _83
REMARK   38  A    between atoms: _82  and  _85
REMARK   39  A    between atoms: _85  and  _86
REMARK   40  A    between atoms: _93  and  _94
REMARK   41  A    between atoms: _99  and  _101
REMARK   42  A    between atoms: _101  and  _102
REMARK   43  A    between atoms: _101  and  _104
REMARK   44  A    between atoms: _104  and  _105
REMARK   45  A    between atoms: _105  and  _106
REMARK   46  A    between atoms: _106  and  _107
REMARK   47  A    between atoms: _116  and  _118
REMARK   48  A    between atoms: _118  and  _119
REMARK   49  A    between atoms: _118  and  _121
REMARK   50  A    between atoms: _121  and  _122
REMARK   51  A    between atoms: _127  and  _128
REMARK   52  A    between atoms: _130  and  _132
REMARK   53  A    between atoms: _132  and  _133
REMARK   54  A    between atoms: _135  and  _137
REMARK   55  A    between atoms: _137  and  _138
REMARK   56  A    between atoms: _137  and  _140
REMARK   57  A    between atoms: _140  and  _141
REMARK   58  A    between atoms: _143  and  _145
REMARK   59  A    between atoms: _145  and  _146
REMARK   60  A    between atoms: _145  and  _148
REMARK   61  A    between atoms: _151  and  _153
REMARK   62  A    between atoms: _153  and  _154
REMARK   63  A    between atoms: _157  and  _159
REMARK   64  A    between atoms: _159  and  _160
REMARK   65  A    between atoms: _159  and  _162
REMARK   66  A    between atoms: _162  and  _163
REMARK   67  A    between atoms: _166  and  _168
REMARK   68  A    between atoms: _168  and  _169
REMARK   69  A    between atoms: _168  and  _171
REMARK   70  A    between atoms: _171  and  _172
REMARK   71  A    between atoms: _175  and  _177
REMARK   72  A    between atoms: _177  and  _178
REMARK   73  A    between atoms: _181  and  _183
REMARK   74  A    between atoms: _183  and  _184
REMARK   75  A    between atoms: _187  and  _189
REMARK   76  A    between atoms: _189  and  _190
REMARK   77  A    between atoms: _189  and  _192
REMARK   78  A    between atoms: _192  and  _193
REMARK   79  A    between atoms: _193  and  _194
REMARK   80  A    between atoms: _197  and  _199
REMARK   81  A    between atoms: _199  and  _200
REMARK   82  A    between atoms: _203  and  _205
REMARK   83  A    between atoms: _205  and  _206
REMARK   84  A    between atoms: _205  and  _208
REMARK   85  A    between atoms: _208  and  _209
REMARK   86  A    between atoms: _212  and  _214
REMARK   87  A    between atoms: _214  and  _215
REMARK   88  A    between atoms: _214  and  _217
REMARK   89  A    between atoms: _217  and  _218
REMARK   90  A    between atoms: _223  and  _225
REMARK   91  A    between atoms: _225  and  _226
REMARK   92  A    between atoms: _228  and  _230
REMARK   93  A    between atoms: _230  and  _231
REMARK   94  A    between atoms: _230  and  _233
REMARK   95  A    between atoms: _233  and  _234
REMARK   96  A    between atoms: _234  and  _235
REMARK   97  A    between atoms: _238  and  _240
REMARK   98  A    between atoms: _240  and  _241
REMARK   99  A    between atoms: _240  and  _243
REMARK  100  A    between atoms: _243  and  _244
REMARK  101  A    between atoms: _249  and  _251
REMARK  102  A    between atoms: _251  and  _252
REMARK  103  A    between atoms: _251  and  _254
REMARK  104  A    between atoms: _257  and  _259
REMARK  105  A    between atoms: _259  and  _260
REMARK  106  A    between atoms: _259  and  _262
REMARK  107  A    between atoms: _262  and  _263
REMARK  108  A    between atoms: _263  and  _264
REMARK  109  A    between atoms: _266  and  _268
REMARK  110  A    between atoms: _268  and  _269
REMARK  111  A    between atoms: _272  and  _274
REMARK  112  A    between atoms: _274  and  _275
REMARK  113  A    between atoms: _274  and  _277
REMARK  114  A    between atoms: _277  and  _278
REMARK  115  A    between atoms: _281  and  _283
REMARK  116  A    between atoms: _283  and  _284
REMARK  117  A    between atoms: _283  and  _286
REMARK  118  A    between atoms: _286  and  _287
REMARK  119  A    between atoms: _290  and  _292
REMARK  120  A    between atoms: _292  and  _293
REMARK  121  A    between atoms: _292  and  _295
REMARK  122  A    between atoms: _295  and  _296
REMARK  123  A    between atoms: _302  and  _304
REMARK  124  A    between atoms: _304  and  _305
REMARK  125  A    between atoms: _308  and  _310
REMARK  126  A    between atoms: _310  and  _311
REMARK  127  A    between atoms: _310  and  _313
REMARK  128  A    between atoms: _313  and  _314
REMARK  129  A    between atoms: _317  and  _319
REMARK  130  A    between atoms: _319  and  _320
REMARK  131  A    between atoms: _319  and  _322
REMARK  132  A    between atoms: _322  and  _323
REMARK  133  A    between atoms: _323  and  _324
REMARK  134  A    between atoms: _324  and  _325
REMARK  135  A    between atoms: _334  and  _336
REMARK  136  A    between atoms: _336  and  _337
REMARK  137  A    between atoms: _336  and  _339
REMARK  138  A    between atoms: _339  and  _340
REMARK  139  A    between atoms: _343  and  _345
REMARK  140  A    between atoms: _345  and  _346
REMARK  141  A    between atoms: _345  and  _348
REMARK  142  A    between atoms: _348  and  _349
REMARK  143  A    between atoms: _349  and  _350
REMARK  144  A    between atoms: _350  and  _351
REMARK  145  A    between atoms: _360  and  _362
REMARK  146  A    between atoms: _362  and  _363
REMARK  147  A    between atoms: _362  and  _365
REMARK  148  A    between atoms: _365  and  _366
REMARK  149  A    between atoms: _371  and  _372
REMARK  150  A    between atoms: _374  and  _376
REMARK  151  A    between atoms: _376  and  _377
REMARK  152  A    between atoms: _376  and  _379
REMARK  153  A    between atoms: _382  and  _384
REMARK  154  A    between atoms: _384  and  _385
REMARK  155  A    between atoms: _388  and  _390
REMARK  156  A    between atoms: _390  and  _391
REMARK  157  A    between atoms: _390  and  _393
REMARK  158  A    between atoms: _393  and  _394
REMARK  159  A    between atoms: _396  and  _398
REMARK  160  A    between atoms: _398  and  _399
REMARK  161  A    between atoms: _398  and  _401
REMARK  162  A    between atoms: _401  and  _402
REMARK  163  A    between atoms: _407  and  _409
REMARK  164  A    between atoms: _409  and  _410
REMARK  165  A    between atoms: _413  and  _415
REMARK  166  A    between atoms: _415  and  _416
REMARK  167  A    between atoms: _419  and  _421
REMARK  168  A    between atoms: _421  and  _422
REMARK  169  A    between atoms: _421  and  _424
REMARK  170  A    between atoms: _424  and  _425
REMARK  171  A    between atoms: _430  and  _431
REMARK  172  A    between atoms: _433  and  _435
REMARK  173  A    between atoms: _435  and  _436
REMARK  174  A    between atoms: _435  and  _438
REMARK  175  A    between atoms: _438  and  _439
REMARK  176  A    between atoms: _441  and  _443
REMARK  177  A    between atoms: _443  and  _444
REMARK  178  A    between atoms: _447  and  _449
REMARK  179  A    between atoms: _449  and  _450
REMARK  180  A    between atoms: _449  and  _452
REMARK  181  A    between atoms: _452  and  _453
REMARK  182  A    between atoms: _453  and  _454
REMARK  183  A    between atoms: _454  and  _455
REMARK  184  A    between atoms: _464  and  _466
REMARK  185  A    between atoms: _466  and  _467
REMARK  186  A    between atoms: _466  and  _469
REMARK  187  A    between atoms: _472  and  _474
REMARK  188  A    between atoms: _474  and  _475
REMARK  189  A    between atoms: _474  and  _477
REMARK  190  A    between atoms: _477  and  _478
REMARK  191  A    between atoms: _478  and  _479
REMARK  192  A    between atoms: _482  and  _484
REMARK  193  A    between atoms: _484  and  _485
REMARK  194  A    between atoms: _484  and  _487
REMARK  195  A    between atoms: _487  and  _488
REMARK  196  A    between atoms: _490  and  _492
REMARK  197  A    between atoms: _492  and  _493
REMARK  198  A    between atoms: _492  and  _495
REMARK  199  A    between atoms: _495  and  _496
REMARK  200  A    between atoms: _496  and  _497
REMARK  201  A    between atoms: _497  and  _498
REMARK  202  A    between atoms: _507  and  _509
REMARK  203  A    between atoms: _509  and  _510
REMARK  204  A    between atoms: _513  and  _515
REMARK  205  A    between atoms: _515  and  _516
REMARK  206  A    between atoms: _515  and  _518
REMARK  207  A    between atoms: _518  and  _519
REMARK  208  A    between atoms: _519  and  _520
REMARK  209  A    between atoms: _520  and  _521
REMARK  210  A    between atoms: _530  and  _532
REMARK  211  A    between atoms: _532  and  _533
REMARK  212  A    between atoms: _532  and  _535
REMARK  213  A    between atoms: _535  and  _536
REMARK  214  A    between atoms: _539  and  _541
REMARK  215  A    between atoms: _541  and  _542
REMARK  216  A    between atoms: _544  and  _546
REMARK  217  A    between atoms: _546  and  _547
REMARK  218  A    between atoms: _546  and  _549
REMARK  219  A    between atoms: _549  and  _550
REMARK  220  A    between atoms: _550  and  _551
REMARK  221  A    between atoms: _551  and  _552
REMARK  222  A    between atoms: _561  and  _563
REMARK  223  A    between atoms: _563  and  _564
REMARK  224  A    between atoms: _567  and  _569
REMARK  225  A    between atoms: _569  and  _570
REMARK  226  A    between atoms: _569  and  _572
REMARK  227  A    between atoms: _572  and  _573
REMARK  228  A    between atoms: _573  and  _574
REMARK  229  A    between atoms: _574  and  _575
REMARK  230  A    between atoms: _584  and  _586
REMARK  231  A    between atoms: _586  and  _587
REMARK  232  A    between atoms: _586  and  _589
REMARK  233  A    between atoms: _589  and  _590
REMARK  234  A    between atoms: _593  and  _595
REMARK  235  A    between atoms: _595  and  _596
REMARK  236  A    between atoms: _595  and  _598
REMARK  237  A    between atoms: _598  and  _599
REMARK  238  A    between atoms: _604  and  _606
REMARK  239  A    between atoms: _606  and  _607
REMARK  240  A    between atoms: _606  and  _609
REMARK  241  A    between atoms: _609  and  _610
REMARK  242  A    between atoms: _615  and  _616
REMARK  243  A    between atoms: _618  and  _620
REMARK  244  A    between atoms: _620  and  _621
REMARK  245  A    between atoms: _620  and  _623
REMARK  246  A    between atoms: _623  and  _624
REMARK  247  A    between atoms: _624  and  _625
REMARK  248  A    between atoms: _625  and  _627
REMARK  249  A    between atoms: _627  and  MG_715
REMARK  250  A    between atoms: _628  and  _630
REMARK  251  A    between atoms: _630  and  _631
REMARK  252  A    between atoms: _630  and  _633
REMARK  253  A    between atoms: _633  and  _634
REMARK  254  A    between atoms: _634  and  _635
REMARK  255  A    between atoms: _635  and  _636
REMARK  256  A    between atoms: _645  and  _647
REMARK  257  A    between atoms: _647  and  _648
REMARK  258  A    between atoms: _647  and  _650
REMARK  259  A    between atoms: _650  and  _651
REMARK  260  A    between atoms: _654  and  _656
REMARK  261  A    between atoms: _656  and  _657
REMARK  262  A    between atoms: _656  and  _659
REMARK  263  A    between atoms: _659  and  _660
REMARK  264  A    between atoms: _663  and  _665
REMARK  265  A    between atoms: _665  and  _666
REMARK  266  A    between atoms: _665  and  _668
REMARK  267  A    between atoms: _668  and  _669
REMARK  268  A    between atoms: _669  and  _670
REMARK  269  A    between atoms: _675  and  _677
REMARK  270  A    between atoms: _677  and  _678
REMARK  271  A    between atoms: _677  and  _680
REMARK  272  A    between atoms: _680  and  _681
REMARK  273  A    between atoms: _684  and  _686
REMARK  274  A    between atoms: _686  and  _687
REMARK  275  A    between atoms: _686  and  _689
REMARK  276  A    between atoms: _689  and  _690
REMARK  277  A    between atoms: _695  and  _696
REMARK  278  A    between atoms: _698  and  _700
REMARK  279  A    between atoms: _700  and  _701
REMARK  280  A    between atoms: _700  and  _703
REMARK  281  A    between atoms: _703  and  _704
REMARK  282  A    between atoms: _704  and  _705
REMARK  283  A    between atoms: _705  and  _706
REMARK                            x       y       z     vdW  Elec       q    Type
REMARK                         _______ _______ _______ _____ _____    ______ ____
ROOT
ATOM      1  O   HOH     1      29.278  15.419  10.336  0.00  0.00    +0.000 OA
ENDROOT
TORSDOF 0
