REMARK  Name = ../refined-set-2016/5tmp/5tmp_pocket.pdb
REMARK  287 active torsions:
REMARK  status: ('A' for Active; 'I' for Inactive)
REMARK    1  A    between atoms: _1  and  _3
REMARK    2  A    between atoms: _3  and  _4
REMARK    3  A    between atoms: _3  and  _6
REMARK    4  A    between atoms: _6  and  _7
REMARK    5  A    between atoms: _10  and  _12
REMARK    6  A    between atoms: _12  and  _13
REMARK    7  A    between atoms: _12  and  _15
REMARK    8  A    between atoms: _15  and  _16
REMARK    9  A    between atoms: _16  and  _17
REMARK   10  A    between atoms: _20  and  _22
REMARK   11  A    between atoms: _22  and  _23
REMARK   12  A    between atoms: _25  and  _27
REMARK   13  A    between atoms: _27  and  _28
REMARK   14  A    between atoms: _27  and  _30
REMARK   15  A    between atoms: _30  and  _31
REMARK   16  A    between atoms: _34  and  _36
REMARK   17  A    between atoms: _36  and  _37
REMARK   18  A    between atoms: _36  and  _39
REMARK   19  A    between atoms: _39  and  _40
REMARK   20  A    between atoms: _40  and  _41
REMARK   21  A    between atoms: _44  and  _46
REMARK   22  A    between atoms: _46  and  _47
REMARK   23  A    between atoms: _49  and  _51
REMARK   24  A    between atoms: _51  and  _52
REMARK   25  A    between atoms: _55  and  _57
REMARK   26  A    between atoms: _57  and  _58
REMARK   27  A    between atoms: _60  and  _62
REMARK   28  A    between atoms: _62  and  _63
REMARK   29  A    between atoms: _62  and  _65
REMARK   30  A    between atoms: _65  and  _66
REMARK   31  A    between atoms: _66  and  _67
REMARK   32  A    between atoms: _67  and  _68
REMARK   33  A    between atoms: _68  and  _69
REMARK   34  A    between atoms: _73  and  _75
REMARK   35  A    between atoms: _75  and  _76
REMARK   36  A    between atoms: _75  and  _78
REMARK   37  A    between atoms: _78  and  _79
REMARK   38  A    between atoms: _82  and  _84
REMARK   39  A    between atoms: _84  and  _85
REMARK   40  A    between atoms: _84  and  _87
REMARK   41  A    between atoms: _87  and  _88
REMARK   42  A    between atoms: _91  and  _93
REMARK   43  A    between atoms: _93  and  _94
REMARK   44  A    between atoms: _97  and  _99
REMARK   45  A    between atoms: _99  and  _100
REMARK   46  A    between atoms: _99  and  _102
REMARK   47  A    between atoms: _102  and  _103
REMARK   48  A    between atoms: _103  and  _104
REMARK   49  A    between atoms: _104  and  _105
REMARK   50  A    between atoms: _114  and  _116
REMARK   51  A    between atoms: _116  and  _117
REMARK   52  A    between atoms: _116  and  _119
REMARK   53  A    between atoms: _119  and  _120
REMARK   54  A    between atoms: _120  and  _121
REMARK   55  A    between atoms: _121  and  _122
REMARK   56  A    between atoms: _131  and  _133
REMARK   57  A    between atoms: _133  and  _134
REMARK   58  A    between atoms: _133  and  _136
REMARK   59  A    between atoms: _136  and  _137
REMARK   60  A    between atoms: _137  and  _138
REMARK   61  A    between atoms: _142  and  _143
REMARK   62  A    between atoms: _148  and  _150
REMARK   63  A    between atoms: _150  and  _151
REMARK   64  A    between atoms: _153  and  _155
REMARK   65  A    between atoms: _155  and  _156
REMARK   66  A    between atoms: _155  and  _158
REMARK   67  A    between atoms: _158  and  _159
REMARK   68  A    between atoms: _159  and  _160
REMARK   69  A    between atoms: _160  and  _161
REMARK   70  A    between atoms: _170  and  _172
REMARK   71  A    between atoms: _172  and  _173
REMARK   72  A    between atoms: _172  and  _175
REMARK   73  A    between atoms: _175  and  _176
REMARK   74  A    between atoms: _179  and  _181
REMARK   75  A    between atoms: _181  and  _182
REMARK   76  A    between atoms: _181  and  _184
REMARK   77  A    between atoms: _184  and  _185
REMARK   78  A    between atoms: _188  and  _190
REMARK   79  A    between atoms: _190  and  _191
REMARK   80  A    between atoms: _190  and  _193
REMARK   81  A    between atoms: _193  and  _194
REMARK   82  A    between atoms: _194  and  _195
REMARK   83  A    between atoms: _198  and  _200
REMARK   84  A    between atoms: _200  and  _201
REMARK   85  A    between atoms: _200  and  _203
REMARK   86  A    between atoms: _206  and  _208
REMARK   87  A    between atoms: _208  and  _209
REMARK   88  A    between atoms: _208  and  _211
REMARK   89  A    between atoms: _211  and  _212
REMARK   90  A    between atoms: _212  and  _213
REMARK   91  A    between atoms: _215  and  _217
REMARK   92  A    between atoms: _217  and  _218
REMARK   93  A    between atoms: _217  and  _220
REMARK   94  A    between atoms: _220  and  _221
REMARK   95  A    between atoms: _227  and  _229
REMARK   96  A    between atoms: _229  and  _230
REMARK   97  A    between atoms: _229  and  _232
REMARK   98  A    between atoms: _232  and  _233
REMARK   99  A    between atoms: _238  and  _239
REMARK  100  A    between atoms: _241  and  _243
REMARK  101  A    between atoms: _243  and  _244
REMARK  102  A    between atoms: _247  and  _249
REMARK  103  A    between atoms: _249  and  _250
REMARK  104  A    between atoms: _249  and  _252
REMARK  105  A    between atoms: _252  and  _253
REMARK  106  A    between atoms: _253  and  _254
REMARK  107  A    between atoms: _254  and  _255
REMARK  108  A    between atoms: _264  and  _266
REMARK  109  A    between atoms: _266  and  _267
REMARK  110  A    between atoms: _266  and  _269
REMARK  111  A    between atoms: _269  and  _270
REMARK  112  A    between atoms: _273  and  _275
REMARK  113  A    between atoms: _275  and  _276
REMARK  114  A    between atoms: _275  and  _278
REMARK  115  A    between atoms: _278  and  _279
REMARK  116  A    between atoms: _279  and  _280
REMARK  117  A    between atoms: _280  and  _281
REMARK  118  A    between atoms: _290  and  _292
REMARK  119  A    between atoms: _292  and  _293
REMARK  120  A    between atoms: _292  and  _295
REMARK  121  A    between atoms: _295  and  _296
REMARK  122  A    between atoms: _301  and  _303
REMARK  123  A    between atoms: _303  and  _304
REMARK  124  A    between atoms: _303  and  _306
REMARK  125  A    between atoms: _306  and  _307
REMARK  126  A    between atoms: _310  and  _312
REMARK  127  A    between atoms: _312  and  _313
REMARK  128  A    between atoms: _312  and  _315
REMARK  129  A    between atoms: _315  and  _316
REMARK  130  A    between atoms: _319  and  _321
REMARK  131  A    between atoms: _321  and  _322
REMARK  132  A    between atoms: _321  and  _324
REMARK  133  A    between atoms: _324  and  _325
REMARK  134  A    between atoms: _327  and  _329
REMARK  135  A    between atoms: _329  and  _330
REMARK  136  A    between atoms: _329  and  _332
REMARK  137  A    between atoms: _332  and  _333
REMARK  138  A    between atoms: _336  and  _338
REMARK  139  A    between atoms: _338  and  _339
REMARK  140  A    between atoms: _338  and  _341
REMARK  141  A    between atoms: _341  and  _342
REMARK  142  A    between atoms: _342  and  _343
REMARK  143  A    between atoms: _348  and  _350
REMARK  144  A    between atoms: _350  and  _351
REMARK  145  A    between atoms: _354  and  _356
REMARK  146  A    between atoms: _356  and  _357
REMARK  147  A    between atoms: _356  and  _359
REMARK  148  A    between atoms: _359  and  _360
REMARK  149  A    between atoms: _365  and  _366
REMARK  150  A    between atoms: _368  and  _370
REMARK  151  A    between atoms: _370  and  _371
REMARK  152  A    between atoms: _370  and  _373
REMARK  153  A    between atoms: _373  and  _374
REMARK  154  A    between atoms: _374  and  _375
REMARK  155  A    between atoms: _380  and  _382
REMARK  156  A    between atoms: _382  and  _383
REMARK  157  A    between atoms: _385  and  _387
REMARK  158  A    between atoms: _387  and  _388
REMARK  159  A    between atoms: _390  and  _392
REMARK  160  A    between atoms: _392  and  _393
REMARK  161  A    between atoms: _392  and  _395
REMARK  162  A    between atoms: _395  and  _396
REMARK  163  A    between atoms: _396  and  _397
REMARK  164  A    between atoms: _397  and  _398
REMARK  165  A    between atoms: _407  and  _409
REMARK  166  A    between atoms: _409  and  _410
REMARK  167  A    between atoms: _409  and  _412
REMARK  168  A    between atoms: _412  and  _413
REMARK  169  A    between atoms: _416  and  _418
REMARK  170  A    between atoms: _418  and  _419
REMARK  171  A    between atoms: _418  and  _421
REMARK  172  A    between atoms: _424  and  _426
REMARK  173  A    between atoms: _426  and  _427
REMARK  174  A    between atoms: _426  and  _429
REMARK  175  A    between atoms: _432  and  _434
REMARK  176  A    between atoms: _434  and  _435
REMARK  177  A    between atoms: _437  and  _439
REMARK  178  A    between atoms: _439  and  _440
REMARK  179  A    between atoms: _439  and  _442
REMARK  180  A    between atoms: _442  and  _443
REMARK  181  A    between atoms: _446  and  _448
REMARK  182  A    between atoms: _448  and  _449
REMARK  183  A    between atoms: _448  and  _451
REMARK  184  A    between atoms: _451  and  _452
REMARK  185  A    between atoms: _452  and  _453
REMARK  186  A    between atoms: _453  and  _454
REMARK  187  A    between atoms: _454  and  _455
REMARK  188  A    between atoms: _459  and  _461
REMARK  189  A    between atoms: _461  and  _462
REMARK  190  A    between atoms: _461  and  _464
REMARK  191  A    between atoms: _464  and  _465
REMARK  192  A    between atoms: _465  and  _466
REMARK  193  A    between atoms: _466  and  _467
REMARK  194  A    between atoms: _476  and  _478
REMARK  195  A    between atoms: _478  and  _479
REMARK  196  A    between atoms: _482  and  _484
REMARK  197  A    between atoms: _484  and  _485
REMARK  198  A    between atoms: _484  and  _487
REMARK  199  A    between atoms: _487  and  _488
REMARK  200  A    between atoms: _488  and  _489
REMARK  201  A    between atoms: _489  and  _490
REMARK  202  A    between atoms: _499  and  _501
REMARK  203  A    between atoms: _501  and  _502
REMARK  204  A    between atoms: _505  and  _507
REMARK  205  A    between atoms: _507  and  _508
REMARK  206  A    between atoms: _507  and  _510
REMARK  207  A    between atoms: _510  and  _511
REMARK  208  A    between atoms: _511  and  _512
REMARK  209  A    between atoms: _512  and  _513
REMARK  210  A    between atoms: _522  and  _524
REMARK  211  A    between atoms: _524  and  _525
REMARK  212  A    between atoms: _527  and  _529
REMARK  213  A    between atoms: _529  and  _530
REMARK  214  A    between atoms: _529  and  _532
REMARK  215  A    between atoms: _532  and  _533
REMARK  216  A    between atoms: _533  and  _534
REMARK  217  A    between atoms: _537  and  _539
REMARK  218  A    between atoms: _539  and  _540
REMARK  219  A    between atoms: _539  and  _542
REMARK  220  A    between atoms: _542  and  _543
REMARK  221  A    between atoms: _546  and  _548
REMARK  222  A    between atoms: _548  and  _549
REMARK  223  A    between atoms: _548  and  _551
REMARK  224  A    between atoms: _551  and  _552
REMARK  225  A    between atoms: _552  and  _553
REMARK  226  A    between atoms: _553  and  _554
REMARK  227  A    between atoms: _563  and  _565
REMARK  228  A    between atoms: _565  and  _566
REMARK  229  A    between atoms: _565  and  _568
REMARK  230  A    between atoms: _568  and  _569
REMARK  231  A    between atoms: _572  and  _574
REMARK  232  A    between atoms: _574  and  _575
REMARK  233  A    between atoms: _574  and  _577
REMARK  234  A    between atoms: _577  and  _578
REMARK  235  A    between atoms: _578  and  _579
REMARK  236  A    between atoms: _582  and  _584
REMARK  237  A    between atoms: _584  and  _585
REMARK  238  A    between atoms: _584  and  _587
REMARK  239  A    between atoms: _587  and  _588
REMARK  240  A    between atoms: _588  and  _589
REMARK  241  A    between atoms: _594  and  _596
REMARK  242  A    between atoms: _596  and  _597
REMARK  243  A    between atoms: _596  and  _599
REMARK  244  A    between atoms: _599  and  _600
REMARK  245  A    between atoms: _600  and  _601
REMARK  246  A    between atoms: _604  and  _606
REMARK  247  A    between atoms: _606  and  _607
REMARK  248  A    between atoms: _606  and  _609
REMARK  249  A    between atoms: _609  and  _610
REMARK  250  A    between atoms: _616  and  _618
REMARK  251  A    between atoms: _618  and  _619
REMARK  252  A    between atoms: _618  and  _621
REMARK  253  A    between atoms: _621  and  _622
REMARK  254  A    between atoms: _628  and  _630
REMARK  255  A    between atoms: _630  and  _631
REMARK  256  A    between atoms: _630  and  _633
REMARK  257  A    between atoms: _633  and  _634
REMARK  258  A    between atoms: _637  and  _639
REMARK  259  A    between atoms: _639  and  _640
REMARK  260  A    between atoms: _639  and  _642
REMARK  261  A    between atoms: _642  and  _643
REMARK  262  A    between atoms: _648  and  _649
REMARK  263  A    between atoms: _651  and  _653
REMARK  264  A    between atoms: _653  and  _654
REMARK  265  A    between atoms: _657  and  _659
REMARK  266  A    between atoms: _659  and  _660
REMARK  267  A    between atoms: _659  and  _662
REMARK  268  A    between atoms: _662  and  _663
REMARK  269  A    between atoms: _663  and  _664
REMARK  270  A    between atoms: _670  and  _671
REMARK  271  A    between atoms: _676  and  _678
REMARK  272  A    between atoms: _678  and  _679
REMARK  273  A    between atoms: _678  and  _681
REMARK  274  A    between atoms: _681  and  _682
REMARK  275  A    between atoms: _685  and  _687
REMARK  276  A    between atoms: _687  and  _688
REMARK  277  A    between atoms: _687  and  _690
REMARK  278  A    between atoms: _690  and  _691
REMARK  279  A    between atoms: _691  and  _692
REMARK  280  A    between atoms: _695  and  _697
REMARK  281  A    between atoms: _697  and  _698
REMARK  282  A    between atoms: _697  and  _700
REMARK  283  A    between atoms: _703  and  _705
REMARK  284  A    between atoms: _705  and  _706
REMARK  285  A    between atoms: _705  and  _708
REMARK  286  A    between atoms: _708  and  _709
REMARK  287  A    between atoms: _709  and  _710
REMARK                            x       y       z     vdW  Elec       q    Type
REMARK                         _______ _______ _______ _____ _____    ______ ____
ROOT
ATOM      1  CA  GLY A   8      22.241 115.535  16.466  0.00  0.00    +0.176 C 
ENDROOT
BRANCH   1   2
ATOM      2  C   GLY A   8      22.604 115.126  15.068  0.00  0.00    +0.243 C 
ATOM      3  N   LYS A   9      22.714 113.819  14.866  0.00  0.00    -0.297 N 
ATOM      4  H   LYS A   9      22.537 113.178  15.665  0.00  0.00    +0.150 HD
ATOM      5  O   GLY A   8      22.766 115.973  14.188  0.00  0.00    -0.273 OA
BRANCH   3   6
ATOM      6  CA  LYS A   9      23.072 113.239  13.575  0.00  0.00    +0.149 C 
BRANCH   6   7
ATOM      7  C   LYS A   9      22.259 113.708  12.363  0.00  0.00    +0.241 C 
ATOM      8  N   THR A  10      20.960 113.927  12.534  0.00  0.00    -0.295 N 
ATOM      9  H   THR A  10      20.532 113.793  13.473  0.00  0.00    +0.150 HD
ATOM     10  O   LYS A   9      22.813 113.878  11.277  0.00  0.00    -0.273 OA
BRANCH   8  11
ATOM     11  CA  THR A  10      20.126 114.356  11.408  0.00  0.00    +0.176 C 
BRANCH  11  12
ATOM     12  C   THR A  10      20.401 115.803  11.069  0.00  0.00    +0.243 C 
ATOM     13  N   THR A  11      20.462 116.597  12.117  0.00  0.00    -0.295 N 
ATOM     14  H   THR A  11      20.323 116.207  13.071  0.00  0.00    +0.150 HD
ATOM     15  O   THR A  10      20.524 116.202   9.905  0.00  0.00    -0.273 OA
BRANCH  13  16
ATOM     16  CA  THR A  11      20.719 117.998  11.948  0.00  0.00    +0.176 C 
BRANCH  16  17
ATOM     17  C   THR A  11      22.037 118.113  11.193  0.00  0.00    +0.243 C 
ATOM     18  N   ALA A  12      23.033 117.387  11.691  0.00  0.00    -0.297 N 
ATOM     19  H   ALA A  12      22.861 116.812  12.540  0.00  0.00    +0.150 HD
ATOM     20  O   THR A  11      22.142 118.807  10.171  0.00  0.00    -0.273 OA
BRANCH  18  21
ATOM     21  CA  ALA A  12      24.350 117.371  11.089  0.00  0.00    +0.149 C 
ATOM     22  CB  ALA A  12      25.268 116.463  11.896  0.00  0.00    +0.031 C 
BRANCH  21  23
ATOM     23  C   ALA A  12      24.287 116.908   9.633  0.00  0.00    +0.241 C 
ATOM     24  N   ARG A  13      23.435 115.925   9.361  0.00  0.00    -0.298 N 
ATOM     25  H   ARG A  13      22.851 115.524  10.122  0.00  0.00    +0.150 HD
ATOM     26  O   ALA A  12      24.997 117.437   8.763  0.00  0.00    -0.273 OA
BRANCH  24  27
ATOM     27  CA  ARG A  13      23.312 115.403   8.001  0.00  0.00    +0.137 C 
BRANCH  27  28
ATOM     28  C   ARG A  13      22.738 116.450   7.062  0.00  0.00    +0.227 C 
ATOM     29  O   ARG A  13      23.099 116.497   5.881  0.00  0.00    -0.286 OA
ENDBRANCH  27  28
BRANCH  27  30
ATOM     30  CB  ARG A  13      22.432 114.157   7.973  0.00  0.00    +0.031 C 
BRANCH  30  31
ATOM     31  CG  ARG A  13      22.232 113.611   6.580  0.00  0.00    +0.045 C 
BRANCH  31  32
ATOM     32  CD  ARG A  13      21.396 112.361   6.627  0.00  0.00    +0.174 C 
BRANCH  32  33
ATOM     33  NE  ARG A  13      20.091 112.559   6.013  0.00  0.00    -0.265 N 
ATOM     34  CZ  ARG A  13      19.027 111.803   6.263  0.00  0.00    +0.342 C 
ATOM     35  NH2 ARG A  13      19.112 110.796   7.118  0.00  0.00    -0.292 N 
ATOM     36 HH21 ARG A  13      20.013 110.595   7.596  0.00  0.00    +0.255 HD
ATOM     37 HH22 ARG A  13      18.278 110.206   7.311  0.00  0.00    +0.255 HD
ATOM     38  NH1 ARG A  13      17.881 112.041   5.641  0.00  0.00    -0.292 N 
ATOM     39 HH11 ARG A  13      17.050 111.448   5.838  0.00  0.00    +0.255 HD
ATOM     40 HH12 ARG A  13      17.813 112.821   4.956  0.00  0.00    +0.255 HD
ATOM     41  HE  ARG A  13      19.985 113.341   5.336  0.00  0.00    +0.259 HD
ENDBRANCH  32  33
ENDBRANCH  31  32
ENDBRANCH  30  31
ENDBRANCH  27  30
ENDBRANCH  24  27
ENDBRANCH  21  23
ENDBRANCH  18  21
ENDBRANCH  16  17
BRANCH  16  42
ATOM     42  CB  THR A  11      20.800 118.638  13.310  0.00  0.00    +0.137 C 
ATOM     43  CG2 THR A  11      21.403 120.014  13.207  0.00  0.00    +0.034 C 
BRANCH  42  44
ATOM     44  OG1 THR A  11      19.473 118.711  13.858  0.00  0.00    -0.382 OA
ATOM     45  HG1 THR A  11      19.510 119.130  14.754  0.00  0.00    +0.210 HD
ENDBRANCH  42  44
ENDBRANCH  16  42
ENDBRANCH  13  16
ENDBRANCH  11  12
BRANCH  11  46
ATOM     46  CB  THR A  10      18.629 114.237  11.741  0.00  0.00    +0.137 C 
ATOM     47  CG2 THR A  10      17.828 113.890  10.489  0.00  0.00    +0.034 C 
BRANCH  46  48
ATOM     48  OG1 THR A  10      18.449 113.232  12.746  0.00  0.00    -0.382 OA
ATOM     49  HG1 THR A  10      18.785 112.364  12.407  0.00  0.00    +0.210 HD
ENDBRANCH  46  48
ENDBRANCH  11  46
ENDBRANCH   8  11
ENDBRANCH   6   7
BRANCH   6  50
ATOM     50  CB  LYS A   9      23.009 111.715  13.663  0.00  0.00    +0.029 C 
BRANCH  50  51
ATOM     51  CG  LYS A   9      24.266 111.106  14.227  0.00  0.00    +0.000 C 
BRANCH  51  52
ATOM     52  CD  LYS A   9      24.144 109.609  14.287  0.00  0.00    -0.024 C 
BRANCH  52  53
ATOM     53  CE  LYS A   9      23.872 109.155  15.706  0.00  0.00    -0.086 C 
BRANCH  53  54
ATOM     54  NZ  LYS A   9      22.634 108.307  15.720  0.00  0.00    +0.380 N 
ATOM     55  HZ1 LYS A   9      22.442 107.992  16.692  0.00  0.00    -0.089 HD
ATOM     56  HZ2 LYS A   9      21.829 108.865  15.370  0.00  0.00    -0.089 HD
ATOM     57  HZ3 LYS A   9      22.776 107.478  15.108  0.00  0.00    -0.089 HD
ENDBRANCH  53  54
ENDBRANCH  52  53
ENDBRANCH  51  52
ENDBRANCH  50  51
ENDBRANCH   6  50
ENDBRANCH   3   6
ENDBRANCH   1   2
BRANCH   1  60
ATOM     58  C   ALA A   7      23.672 114.890  18.297  0.00  0.00    +0.241 C 
ATOM     59  O   ALA A   7      24.271 115.970  18.271  0.00  0.00    -0.273 OA
ATOM     60  N   GLY A   8      22.691 114.576  17.456  0.00  0.00    -0.295 N 
ATOM     61  H   GLY A   8      22.244 113.638  17.509  0.00  0.00    +0.150 HD
BRANCH  58  62
ATOM     62  CA  ALA A   7      24.048 113.835  19.311  0.00  0.00    +0.149 C 
ATOM     63  CB  ALA A   7      25.170 112.978  18.766  0.00  0.00    +0.031 C 
BRANCH  62  66
ATOM     64  C   GLY A   6      21.992 113.404  20.566  0.00  0.00    +0.243 C 
ATOM     65  O   GLY A   6      22.019 114.507  21.109  0.00  0.00    -0.273 OA
ATOM     66  N   ALA A   7      22.904 113.006  19.680  0.00  0.00    -0.297 N 
ATOM     67  H   ALA A   7      22.797 112.072  19.236  0.00  0.00    +0.150 HD
BRANCH  64  68
ATOM     68  CA  GLY A   6      20.874 112.421  20.870  0.00  0.00    +0.176 C 
BRANCH  68  71
ATOM     69  C   GLU A   5      21.834 110.238  21.186  0.00  0.00    +0.241 C 
ATOM     70  O   GLU A   5      22.153 110.520  22.347  0.00  0.00    -0.273 OA
ATOM     71  N   GLY A   6      21.210 111.094  20.390  0.00  0.00    -0.295 N 
ATOM     72  H   GLY A   6      20.961 110.814  19.420  0.00  0.00    +0.150 HD
BRANCH  69  73
ATOM     73  CA  GLU A   5      22.169 108.876  20.579  0.00  0.00    +0.149 C 
BRANCH  73  75
ATOM     74  C   LEU A   4      24.527 109.323  20.381  0.00  0.00    +0.241 C 
ATOM     75  N   GLU A   5      23.551 108.636  20.968  0.00  0.00    -0.297 N 
ATOM     76  H   GLU A   5      23.774 107.932  21.700  0.00  0.00    +0.150 HD
ATOM     77  O   LEU A   4      24.305 110.121  19.475  0.00  0.00    -0.273 OA
BRANCH  74  78
ATOM     78  CA  LEU A   4      25.955 109.064  20.859  0.00  0.00    +0.149 C 
BRANCH  78  80
ATOM     79  C   GLY A   3      26.982 109.305  18.691  0.00  0.00    +0.243 C 
ATOM     80  N   LEU A   4      26.874 109.715  19.946  0.00  0.00    -0.297 N 
ATOM     81  H   LEU A   4      27.454 110.511  20.279  0.00  0.00    +0.150 HD
ATOM     82  O   GLY A   3      26.324 108.370  18.252  0.00  0.00    -0.273 OA
BRANCH  79  83
ATOM     83  CA  GLY A   3      27.953 110.046  17.793  0.00  0.00    +0.176 C 
BRANCH  83  85
ATOM     84  C   GLU A   2      28.402 110.008  15.421  0.00  0.00    +0.241 C 
ATOM     85  N   GLY A   3      28.188 109.335  16.547  0.00  0.00    -0.295 N 
ATOM     86  H   GLY A   3      28.189 108.295  16.537  0.00  0.00    +0.150 HD
ATOM     87  O   GLU A   2      28.409 111.228  15.361  0.00  0.00    -0.273 OA
BRANCH  84  88
ATOM     88  CA  GLU A   2      28.669 109.187  14.178  0.00  0.00    +0.149 C 
BRANCH  88  90
ATOM     89  C   ILE A   1      27.950 109.679  11.894  0.00  0.00    +0.238 C 
ATOM     90  N   GLU A   2      28.635 110.025  12.979  0.00  0.00    -0.297 N 
ATOM     91  H   GLU A   2      29.164 110.920  12.976  0.00  0.00    +0.150 HD
ATOM     92  O   ILE A   1      27.294 108.648  11.824  0.00  0.00    -0.274 OA
BRANCH  89  93
ATOM     93  CA  ILE A   1      28.053 110.609  10.695  0.00  0.00    +0.145 C 
BRANCH  93  94
ATOM     94  CB  ILE A   1      26.799 111.493  10.500  0.00  0.00    +0.025 C 
ATOM     95  CG2 ILE A   1      26.533 112.339  11.754  0.00  0.00    +0.002 C 
BRANCH  94  96
ATOM     96  CG1 ILE A   1      27.030 112.407   9.285  0.00  0.00    +0.002 C 
ATOM     97  CD1 ILE A   1      25.785 112.983   8.670  0.00  0.00    +0.000 C 
ENDBRANCH  94  96
ENDBRANCH  93  94
BRANCH  93  98
ATOM     98  N   ILE A   1      28.254 109.758   9.539  0.00  0.00    -0.238 NA
ATOM     99  H   ILE A   1      27.465 109.184   9.179  0.00  0.00    +0.142 HD
ENDBRANCH  93  98
ENDBRANCH  89  93
ENDBRANCH  88  90
BRANCH  88 100
ATOM    100  CB  GLU A   2      30.054 108.551  14.323  0.00  0.00    +0.041 C 
BRANCH 100 101
ATOM    101  CG  GLU A   2      30.344 107.462  13.319  0.00  0.00    +0.116 C 
BRANCH 101 102
ATOM    102  CD  GLU A   2      29.682 106.156  13.698  0.00  0.00    +0.365 C 
ATOM    103  OE2 GLU A   2      29.075 106.086  14.800  0.00  0.00    -0.246 OA
ATOM    104  OE1 GLU A   2      29.772 105.206  12.899  0.00  0.00    -0.246 OA
ENDBRANCH 101 102
ENDBRANCH 100 101
ENDBRANCH  88 100
ENDBRANCH  84  88
ENDBRANCH  83  85
ENDBRANCH  79  83
ENDBRANCH  78  80
BRANCH  78 105
ATOM    105  CB  LEU A   4      26.147 109.625  22.278  0.00  0.00    +0.029 C 
BRANCH 105 106
ATOM    106  CG  LEU A   4      27.363 109.098  23.045  0.00  0.00    +0.002 C 
ATOM    107  CD2 LEU A   4      27.373 109.615  24.472  0.00  0.00    +0.000 C 
ATOM    108  CD1 LEU A   4      27.328 107.586  23.021  0.00  0.00    +0.000 C 
ENDBRANCH 105 106
ENDBRANCH  78 105
ENDBRANCH  74  78
ENDBRANCH  73  75
BRANCH  73 109
ATOM    109  CB  GLU A   5      21.236 107.780  21.127  0.00  0.00    +0.041 C 
BRANCH 109 110
ATOM    110  CG  GLU A   5      21.222 106.481  20.298  0.00  0.00    +0.116 C 
BRANCH 110 111
ATOM    111  CD  GLU A   5      20.018 105.574  20.605  0.00  0.00    +0.365 C 
ATOM    112  OE2 GLU A   5      19.010 106.073  21.156  0.00  0.00    -0.246 OA
ATOM    113  OE1 GLU A   5      20.082 104.364  20.294  0.00  0.00    -0.246 OA
ENDBRANCH 110 111
ENDBRANCH 109 110
ENDBRANCH  73 109
ENDBRANCH  69  73
ENDBRANCH  68  71
ENDBRANCH  64  68
ENDBRANCH  62  66
ENDBRANCH  58  62
ENDBRANCH   1  60
TORSDOF 49
REMARK  Name = ../refined-set-2016/5tmp/5tmp_pocket.pdb
REMARK  287 active torsions:
REMARK  status: ('A' for Active; 'I' for Inactive)
REMARK    1  A    between atoms: _1  and  _3
REMARK    2  A    between atoms: _3  and  _4
REMARK    3  A    between atoms: _3  and  _6
REMARK    4  A    between atoms: _6  and  _7
REMARK    5  A    between atoms: _10  and  _12
REMARK    6  A    between atoms: _12  and  _13
REMARK    7  A    between atoms: _12  and  _15
REMARK    8  A    between atoms: _15  and  _16
REMARK    9  A    between atoms: _16  and  _17
REMARK   10  A    between atoms: _20  and  _22
REMARK   11  A    between atoms: _22  and  _23
REMARK   12  A    between atoms: _25  and  _27
REMARK   13  A    between atoms: _27  and  _28
REMARK   14  A    between atoms: _27  and  _30
REMARK   15  A    between atoms: _30  and  _31
REMARK   16  A    between atoms: _34  and  _36
REMARK   17  A    between atoms: _36  and  _37
REMARK   18  A    between atoms: _36  and  _39
REMARK   19  A    between atoms: _39  and  _40
REMARK   20  A    between atoms: _40  and  _41
REMARK   21  A    between atoms: _44  and  _46
REMARK   22  A    between atoms: _46  and  _47
REMARK   23  A    between atoms: _49  and  _51
REMARK   24  A    between atoms: _51  and  _52
REMARK   25  A    between atoms: _55  and  _57
REMARK   26  A    between atoms: _57  and  _58
REMARK   27  A    between atoms: _60  and  _62
REMARK   28  A    between atoms: _62  and  _63
REMARK   29  A    between atoms: _62  and  _65
REMARK   30  A    between atoms: _65  and  _66
REMARK   31  A    between atoms: _66  and  _67
REMARK   32  A    between atoms: _67  and  _68
REMARK   33  A    between atoms: _68  and  _69
REMARK   34  A    between atoms: _73  and  _75
REMARK   35  A    between atoms: _75  and  _76
REMARK   36  A    between atoms: _75  and  _78
REMARK   37  A    between atoms: _78  and  _79
REMARK   38  A    between atoms: _82  and  _84
REMARK   39  A    between atoms: _84  and  _85
REMARK   40  A    between atoms: _84  and  _87
REMARK   41  A    between atoms: _87  and  _88
REMARK   42  A    between atoms: _91  and  _93
REMARK   43  A    between atoms: _93  and  _94
REMARK   44  A    between atoms: _97  and  _99
REMARK   45  A    between atoms: _99  and  _100
REMARK   46  A    between atoms: _99  and  _102
REMARK   47  A    between atoms: _102  and  _103
REMARK   48  A    between atoms: _103  and  _104
REMARK   49  A    between atoms: _104  and  _105
REMARK   50  A    between atoms: _114  and  _116
REMARK   51  A    between atoms: _116  and  _117
REMARK   52  A    between atoms: _116  and  _119
REMARK   53  A    between atoms: _119  and  _120
REMARK   54  A    between atoms: _120  and  _121
REMARK   55  A    between atoms: _121  and  _122
REMARK   56  A    between atoms: _131  and  _133
REMARK   57  A    between atoms: _133  and  _134
REMARK   58  A    between atoms: _133  and  _136
REMARK   59  A    between atoms: _136  and  _137
REMARK   60  A    between atoms: _137  and  _138
REMARK   61  A    between atoms: _142  and  _143
REMARK   62  A    between atoms: _148  and  _150
REMARK   63  A    between atoms: _150  and  _151
REMARK   64  A    between atoms: _153  and  _155
REMARK   65  A    between atoms: _155  and  _156
REMARK   66  A    between atoms: _155  and  _158
REMARK   67  A    between atoms: _158  and  _159
REMARK   68  A    between atoms: _159  and  _160
REMARK   69  A    between atoms: _160  and  _161
REMARK   70  A    between atoms: _170  and  _172
REMARK   71  A    between atoms: _172  and  _173
REMARK   72  A    between atoms: _172  and  _175
REMARK   73  A    between atoms: _175  and  _176
REMARK   74  A    between atoms: _179  and  _181
REMARK   75  A    between atoms: _181  and  _182
REMARK   76  A    between atoms: _181  and  _184
REMARK   77  A    between atoms: _184  and  _185
REMARK   78  A    between atoms: _188  and  _190
REMARK   79  A    between atoms: _190  and  _191
REMARK   80  A    between atoms: _190  and  _193
REMARK   81  A    between atoms: _193  and  _194
REMARK   82  A    between atoms: _194  and  _195
REMARK   83  A    between atoms: _198  and  _200
REMARK   84  A    between atoms: _200  and  _201
REMARK   85  A    between atoms: _200  and  _203
REMARK   86  A    between atoms: _206  and  _208
REMARK   87  A    between atoms: _208  and  _209
REMARK   88  A    between atoms: _208  and  _211
REMARK   89  A    between atoms: _211  and  _212
REMARK   90  A    between atoms: _212  and  _213
REMARK   91  A    between atoms: _215  and  _217
REMARK   92  A    between atoms: _217  and  _218
REMARK   93  A    between atoms: _217  and  _220
REMARK   94  A    between atoms: _220  and  _221
REMARK   95  A    between atoms: _227  and  _229
REMARK   96  A    between atoms: _229  and  _230
REMARK   97  A    between atoms: _229  and  _232
REMARK   98  A    between atoms: _232  and  _233
REMARK   99  A    between atoms: _238  and  _239
REMARK  100  A    between atoms: _241  and  _243
REMARK  101  A    between atoms: _243  and  _244
REMARK  102  A    between atoms: _247  and  _249
REMARK  103  A    between atoms: _249  and  _250
REMARK  104  A    between atoms: _249  and  _252
REMARK  105  A    between atoms: _252  and  _253
REMARK  106  A    between atoms: _253  and  _254
REMARK  107  A    between atoms: _254  and  _255
REMARK  108  A    between atoms: _264  and  _266
REMARK  109  A    between atoms: _266  and  _267
REMARK  110  A    between atoms: _266  and  _269
REMARK  111  A    between atoms: _269  and  _270
REMARK  112  A    between atoms: _273  and  _275
REMARK  113  A    between atoms: _275  and  _276
REMARK  114  A    between atoms: _275  and  _278
REMARK  115  A    between atoms: _278  and  _279
REMARK  116  A    between atoms: _279  and  _280
REMARK  117  A    between atoms: _280  and  _281
REMARK  118  A    between atoms: _290  and  _292
REMARK  119  A    between atoms: _292  and  _293
REMARK  120  A    between atoms: _292  and  _295
REMARK  121  A    between atoms: _295  and  _296
REMARK  122  A    between atoms: _301  and  _303
REMARK  123  A    between atoms: _303  and  _304
REMARK  124  A    between atoms: _303  and  _306
REMARK  125  A    between atoms: _306  and  _307
REMARK  126  A    between atoms: _310  and  _312
REMARK  127  A    between atoms: _312  and  _313
REMARK  128  A    between atoms: _312  and  _315
REMARK  129  A    between atoms: _315  and  _316
REMARK  130  A    between atoms: _319  and  _321
REMARK  131  A    between atoms: _321  and  _322
REMARK  132  A    between atoms: _321  and  _324
REMARK  133  A    between atoms: _324  and  _325
REMARK  134  A    between atoms: _327  and  _329
REMARK  135  A    between atoms: _329  and  _330
REMARK  136  A    between atoms: _329  and  _332
REMARK  137  A    between atoms: _332  and  _333
REMARK  138  A    between atoms: _336  and  _338
REMARK  139  A    between atoms: _338  and  _339
REMARK  140  A    between atoms: _338  and  _341
REMARK  141  A    between atoms: _341  and  _342
REMARK  142  A    between atoms: _342  and  _343
REMARK  143  A    between atoms: _348  and  _350
REMARK  144  A    between atoms: _350  and  _351
REMARK  145  A    between atoms: _354  and  _356
REMARK  146  A    between atoms: _356  and  _357
REMARK  147  A    between atoms: _356  and  _359
REMARK  148  A    between atoms: _359  and  _360
REMARK  149  A    between atoms: _365  and  _366
REMARK  150  A    between atoms: _368  and  _370
REMARK  151  A    between atoms: _370  and  _371
REMARK  152  A    between atoms: _370  and  _373
REMARK  153  A    between atoms: _373  and  _374
REMARK  154  A    between atoms: _374  and  _375
REMARK  155  A    between atoms: _380  and  _382
REMARK  156  A    between atoms: _382  and  _383
REMARK  157  A    between atoms: _385  and  _387
REMARK  158  A    between atoms: _387  and  _388
REMARK  159  A    between atoms: _390  and  _392
REMARK  160  A    between atoms: _392  and  _393
REMARK  161  A    between atoms: _392  and  _395
REMARK  162  A    between atoms: _395  and  _396
REMARK  163  A    between atoms: _396  and  _397
REMARK  164  A    between atoms: _397  and  _398
REMARK  165  A    between atoms: _407  and  _409
REMARK  166  A    between atoms: _409  and  _410
REMARK  167  A    between atoms: _409  and  _412
REMARK  168  A    between atoms: _412  and  _413
REMARK  169  A    between atoms: _416  and  _418
REMARK  170  A    between atoms: _418  and  _419
REMARK  171  A    between atoms: _418  and  _421
REMARK  172  A    between atoms: _424  and  _426
REMARK  173  A    between atoms: _426  and  _427
REMARK  174  A    between atoms: _426  and  _429
REMARK  175  A    between atoms: _432  and  _434
REMARK  176  A    between atoms: _434  and  _435
REMARK  177  A    between atoms: _437  and  _439
REMARK  178  A    between atoms: _439  and  _440
REMARK  179  A    between atoms: _439  and  _442
REMARK  180  A    between atoms: _442  and  _443
REMARK  181  A    between atoms: _446  and  _448
REMARK  182  A    between atoms: _448  and  _449
REMARK  183  A    between atoms: _448  and  _451
REMARK  184  A    between atoms: _451  and  _452
REMARK  185  A    between atoms: _452  and  _453
REMARK  186  A    between atoms: _453  and  _454
REMARK  187  A    between atoms: _454  and  _455
REMARK  188  A    between atoms: _459  and  _461
REMARK  189  A    between atoms: _461  and  _462
REMARK  190  A    between atoms: _461  and  _464
REMARK  191  A    between atoms: _464  and  _465
REMARK  192  A    between atoms: _465  and  _466
REMARK  193  A    between atoms: _466  and  _467
REMARK  194  A    between atoms: _476  and  _478
REMARK  195  A    between atoms: _478  and  _479
REMARK  196  A    between atoms: _482  and  _484
REMARK  197  A    between atoms: _484  and  _485
REMARK  198  A    between atoms: _484  and  _487
REMARK  199  A    between atoms: _487  and  _488
REMARK  200  A    between atoms: _488  and  _489
REMARK  201  A    between atoms: _489  and  _490
REMARK  202  A    between atoms: _499  and  _501
REMARK  203  A    between atoms: _501  and  _502
REMARK  204  A    between atoms: _505  and  _507
REMARK  205  A    between atoms: _507  and  _508
REMARK  206  A    between atoms: _507  and  _510
REMARK  207  A    between atoms: _510  and  _511
REMARK  208  A    between atoms: _511  and  _512
REMARK  209  A    between atoms: _512  and  _513
REMARK  210  A    between atoms: _522  and  _524
REMARK  211  A    between atoms: _524  and  _525
REMARK  212  A    between atoms: _527  and  _529
REMARK  213  A    between atoms: _529  and  _530
REMARK  214  A    between atoms: _529  and  _532
REMARK  215  A    between atoms: _532  and  _533
REMARK  216  A    between atoms: _533  and  _534
REMARK  217  A    between atoms: _537  and  _539
REMARK  218  A    between atoms: _539  and  _540
REMARK  219  A    between atoms: _539  and  _542
REMARK  220  A    between atoms: _542  and  _543
REMARK  221  A    between atoms: _546  and  _548
REMARK  222  A    between atoms: _548  and  _549
REMARK  223  A    between atoms: _548  and  _551
REMARK  224  A    between atoms: _551  and  _552
REMARK  225  A    between atoms: _552  and  _553
REMARK  226  A    between atoms: _553  and  _554
REMARK  227  A    between atoms: _563  and  _565
REMARK  228  A    between atoms: _565  and  _566
REMARK  229  A    between atoms: _565  and  _568
REMARK  230  A    between atoms: _568  and  _569
REMARK  231  A    between atoms: _572  and  _574
REMARK  232  A    between atoms: _574  and  _575
REMARK  233  A    between atoms: _574  and  _577
REMARK  234  A    between atoms: _577  and  _578
REMARK  235  A    between atoms: _578  and  _579
REMARK  236  A    between atoms: _582  and  _584
REMARK  237  A    between atoms: _584  and  _585
REMARK  238  A    between atoms: _584  and  _587
REMARK  239  A    between atoms: _587  and  _588
REMARK  240  A    between atoms: _588  and  _589
REMARK  241  A    between atoms: _594  and  _596
REMARK  242  A    between atoms: _596  and  _597
REMARK  243  A    between atoms: _596  and  _599
REMARK  244  A    between atoms: _599  and  _600
REMARK  245  A    between atoms: _600  and  _601
REMARK  246  A    between atoms: _604  and  _606
REMARK  247  A    between atoms: _606  and  _607
REMARK  248  A    between atoms: _606  and  _609
REMARK  249  A    between atoms: _609  and  _610
REMARK  250  A    between atoms: _616  and  _618
REMARK  251  A    between atoms: _618  and  _619
REMARK  252  A    between atoms: _618  and  _621
REMARK  253  A    between atoms: _621  and  _622
REMARK  254  A    between atoms: _628  and  _630
REMARK  255  A    between atoms: _630  and  _631
REMARK  256  A    between atoms: _630  and  _633
REMARK  257  A    between atoms: _633  and  _634
REMARK  258  A    between atoms: _637  and  _639
REMARK  259  A    between atoms: _639  and  _640
REMARK  260  A    between atoms: _639  and  _642
REMARK  261  A    between atoms: _642  and  _643
REMARK  262  A    between atoms: _648  and  _649
REMARK  263  A    between atoms: _651  and  _653
REMARK  264  A    between atoms: _653  and  _654
REMARK  265  A    between atoms: _657  and  _659
REMARK  266  A    between atoms: _659  and  _660
REMARK  267  A    between atoms: _659  and  _662
REMARK  268  A    between atoms: _662  and  _663
REMARK  269  A    between atoms: _663  and  _664
REMARK  270  A    between atoms: _670  and  _671
REMARK  271  A    between atoms: _676  and  _678
REMARK  272  A    between atoms: _678  and  _679
REMARK  273  A    between atoms: _678  and  _681
REMARK  274  A    between atoms: _681  and  _682
REMARK  275  A    between atoms: _685  and  _687
REMARK  276  A    between atoms: _687  and  _688
REMARK  277  A    between atoms: _687  and  _690
REMARK  278  A    between atoms: _690  and  _691
REMARK  279  A    between atoms: _691  and  _692
REMARK  280  A    between atoms: _695  and  _697
REMARK  281  A    between atoms: _697  and  _698
REMARK  282  A    between atoms: _697  and  _700
REMARK  283  A    between atoms: _703  and  _705
REMARK  284  A    between atoms: _705  and  _706
REMARK  285  A    between atoms: _705  and  _708
REMARK  286  A    between atoms: _708  and  _709
REMARK  287  A    between atoms: _709  and  _710
REMARK                            x       y       z     vdW  Elec       q    Type
REMARK                         _______ _______ _______ _____ _____    ______ ____
ROOT
ATOM      1  CA  GLU A   2      22.924 101.231  10.397  0.00  0.00    +0.149 C 
ENDROOT
BRANCH   1   2
ATOM      2  C   GLU A   2      22.551 101.195  11.862  0.00  0.00    +0.244 C 
ATOM      3  O   GLU A   2      22.643 102.200  12.551  0.00  0.00    -0.273 OA
ATOM      4  N   PRO A   3      22.095 100.031  12.354  0.00  0.00    -0.272 N 
ATOM      5  CD  PRO A   3      21.718  99.835  13.767  0.00  0.00    +0.094 C 
ATOM      6  CG  PRO A   3      21.157  98.425  13.779  0.00  0.00    +0.024 C 
ATOM      7  CB  PRO A   3      21.767  97.723  12.608  0.00  0.00    +0.031 C 
ATOM      8  CA  PRO A   3      21.932  98.806  11.558  0.00  0.00    +0.152 C 
BRANCH   8   9
ATOM      9  C   PRO A   3      20.679  98.927  10.704  0.00  0.00    +0.241 C 
ATOM     10  O   PRO A   3      19.663  99.429  11.175  0.00  0.00    -0.273 OA
ATOM     11  N   GLY A   4      20.733  98.474   9.459  0.00  0.00    -0.296 N 
ATOM     12  H   GLY A   4      21.612  98.059   9.090  0.00  0.00    +0.150 HD
BRANCH  11  13
ATOM     13  CA  GLY A   4      19.554  98.562   8.614  0.00  0.00    +0.163 C 
BRANCH  13  14
ATOM     14  C   GLY A   4      19.971  98.818   7.183  0.00  0.00    +0.229 C 
ATOM     15  O   GLY A   4      21.122  98.541   6.811  0.00  0.00    -0.286 OA
ENDBRANCH  13  14
ENDBRANCH  11  13
ENDBRANCH   8   9
ENDBRANCH   1   2
BRANCH   1  17
ATOM     16  C   ARG A   1      21.812 102.551   8.673  0.00  0.00    +0.238 C 
ATOM     17  N   GLU A   2      22.516 102.489   9.800  0.00  0.00    -0.297 N 
ATOM     18  H   GLU A   2      22.784 103.376  10.271  0.00  0.00    +0.150 HD
ATOM     19  O   ARG A   1      21.470 101.558   8.052  0.00  0.00    -0.274 OA
BRANCH  16  20
ATOM     20  CA  ARG A   1      21.476 103.946   8.149  0.00  0.00    +0.145 C 
BRANCH  20  21
ATOM     21  N   ARG A   1      21.403 103.903   6.699  0.00  0.00    -0.238 NA
ATOM     22  H   ARG A   1      20.887 103.131   6.230  0.00  0.00    +0.142 HD
ENDBRANCH  20  21
BRANCH  20  23
ATOM     23  CB  ARG A   1      20.161 104.443   8.726  0.00  0.00    +0.030 C 
BRANCH  23  24
ATOM     24  CG  ARG A   1      19.060 103.439   8.654  0.00  0.00    +0.045 C 
BRANCH  24  25
ATOM     25  CD  ARG A   1      18.899 102.685   9.950  0.00  0.00    +0.174 C 
BRANCH  25  26
ATOM     26  NE  ARG A   1      17.675 101.898   9.905  0.00  0.00    -0.265 N 
ATOM     27  CZ  ARG A   1      16.572 102.189  10.586  0.00  0.00    +0.342 C 
ATOM     28  NH2 ARG A   1      16.541 103.259  11.374  0.00  0.00    -0.292 N 
ATOM     29 HH21 ARG A   1      15.678 103.487  11.907  0.00  0.00    +0.255 HD
ATOM     30 HH22 ARG A   1      17.380 103.868  11.457  0.00  0.00    +0.255 HD
ATOM     31  NH1 ARG A   1      15.500 101.412  10.475  0.00  0.00    -0.292 N 
ATOM     32 HH11 ARG A   1      14.636 101.639  11.008  0.00  0.00    +0.255 HD
ATOM     33 HH12 ARG A   1      15.525 100.577   9.856  0.00  0.00    +0.255 HD
ATOM     34  HE  ARG A   1      17.663 101.052   9.300  0.00  0.00    +0.259 HD
ENDBRANCH  25  26
ENDBRANCH  24  25
ENDBRANCH  23  24
ENDBRANCH  20  23
ENDBRANCH  16  20
ENDBRANCH   1  17
BRANCH   1  35
ATOM     35  CB  GLU A   2      24.438 101.052  10.290  0.00  0.00    +0.041 C 
BRANCH  35  36
ATOM     36  CG  GLU A   2      24.933 100.753   8.896  0.00  0.00    +0.116 C 
BRANCH  36  37
ATOM     37  CD  GLU A   2      26.408 100.392   8.876  0.00  0.00    +0.365 C 
ATOM     38  OE2 GLU A   2      26.906  99.910   9.919  0.00  0.00    -0.246 OA
ATOM     39  OE1 GLU A   2      27.058 100.594   7.818  0.00  0.00    -0.246 OA
ENDBRANCH  36  37
ENDBRANCH  35  36
ENDBRANCH   1  35
TORSDOF 14
REMARK  Name = ../refined-set-2016/5tmp/5tmp_pocket.pdb
REMARK  287 active torsions:
REMARK  status: ('A' for Active; 'I' for Inactive)
REMARK    1  A    between atoms: _1  and  _3
REMARK    2  A    between atoms: _3  and  _4
REMARK    3  A    between atoms: _3  and  _6
REMARK    4  A    between atoms: _6  and  _7
REMARK    5  A    between atoms: _10  and  _12
REMARK    6  A    between atoms: _12  and  _13
REMARK    7  A    between atoms: _12  and  _15
REMARK    8  A    between atoms: _15  and  _16
REMARK    9  A    between atoms: _16  and  _17
REMARK   10  A    between atoms: _20  and  _22
REMARK   11  A    between atoms: _22  and  _23
REMARK   12  A    between atoms: _25  and  _27
REMARK   13  A    between atoms: _27  and  _28
REMARK   14  A    between atoms: _27  and  _30
REMARK   15  A    between atoms: _30  and  _31
REMARK   16  A    between atoms: _34  and  _36
REMARK   17  A    between atoms: _36  and  _37
REMARK   18  A    between atoms: _36  and  _39
REMARK   19  A    between atoms: _39  and  _40
REMARK   20  A    between atoms: _40  and  _41
REMARK   21  A    between atoms: _44  and  _46
REMARK   22  A    between atoms: _46  and  _47
REMARK   23  A    between atoms: _49  and  _51
REMARK   24  A    between atoms: _51  and  _52
REMARK   25  A    between atoms: _55  and  _57
REMARK   26  A    between atoms: _57  and  _58
REMARK   27  A    between atoms: _60  and  _62
REMARK   28  A    between atoms: _62  and  _63
REMARK   29  A    between atoms: _62  and  _65
REMARK   30  A    between atoms: _65  and  _66
REMARK   31  A    between atoms: _66  and  _67
REMARK   32  A    between atoms: _67  and  _68
REMARK   33  A    between atoms: _68  and  _69
REMARK   34  A    between atoms: _73  and  _75
REMARK   35  A    between atoms: _75  and  _76
REMARK   36  A    between atoms: _75  and  _78
REMARK   37  A    between atoms: _78  and  _79
REMARK   38  A    between atoms: _82  and  _84
REMARK   39  A    between atoms: _84  and  _85
REMARK   40  A    between atoms: _84  and  _87
REMARK   41  A    between atoms: _87  and  _88
REMARK   42  A    between atoms: _91  and  _93
REMARK   43  A    between atoms: _93  and  _94
REMARK   44  A    between atoms: _97  and  _99
REMARK   45  A    between atoms: _99  and  _100
REMARK   46  A    between atoms: _99  and  _102
REMARK   47  A    between atoms: _102  and  _103
REMARK   48  A    between atoms: _103  and  _104
REMARK   49  A    between atoms: _104  and  _105
REMARK   50  A    between atoms: _114  and  _116
REMARK   51  A    between atoms: _116  and  _117
REMARK   52  A    between atoms: _116  and  _119
REMARK   53  A    between atoms: _119  and  _120
REMARK   54  A    between atoms: _120  and  _121
REMARK   55  A    between atoms: _121  and  _122
REMARK   56  A    between atoms: _131  and  _133
REMARK   57  A    between atoms: _133  and  _134
REMARK   58  A    between atoms: _133  and  _136
REMARK   59  A    between atoms: _136  and  _137
REMARK   60  A    between atoms: _137  and  _138
REMARK   61  A    between atoms: _142  and  _143
REMARK   62  A    between atoms: _148  and  _150
REMARK   63  A    between atoms: _150  and  _151
REMARK   64  A    between atoms: _153  and  _155
REMARK   65  A    between atoms: _155  and  _156
REMARK   66  A    between atoms: _155  and  _158
REMARK   67  A    between atoms: _158  and  _159
REMARK   68  A    between atoms: _159  and  _160
REMARK   69  A    between atoms: _160  and  _161
REMARK   70  A    between atoms: _170  and  _172
REMARK   71  A    between atoms: _172  and  _173
REMARK   72  A    between atoms: _172  and  _175
REMARK   73  A    between atoms: _175  and  _176
REMARK   74  A    between atoms: _179  and  _181
REMARK   75  A    between atoms: _181  and  _182
REMARK   76  A    between atoms: _181  and  _184
REMARK   77  A    between atoms: _184  and  _185
REMARK   78  A    between atoms: _188  and  _190
REMARK   79  A    between atoms: _190  and  _191
REMARK   80  A    between atoms: _190  and  _193
REMARK   81  A    between atoms: _193  and  _194
REMARK   82  A    between atoms: _194  and  _195
REMARK   83  A    between atoms: _198  and  _200
REMARK   84  A    between atoms: _200  and  _201
REMARK   85  A    between atoms: _200  and  _203
REMARK   86  A    between atoms: _206  and  _208
REMARK   87  A    between atoms: _208  and  _209
REMARK   88  A    between atoms: _208  and  _211
REMARK   89  A    between atoms: _211  and  _212
REMARK   90  A    between atoms: _212  and  _213
REMARK   91  A    between atoms: _215  and  _217
REMARK   92  A    between atoms: _217  and  _218
REMARK   93  A    between atoms: _217  and  _220
REMARK   94  A    between atoms: _220  and  _221
REMARK   95  A    between atoms: _227  and  _229
REMARK   96  A    between atoms: _229  and  _230
REMARK   97  A    between atoms: _229  and  _232
REMARK   98  A    between atoms: _232  and  _233
REMARK   99  A    between atoms: _238  and  _239
REMARK  100  A    between atoms: _241  and  _243
REMARK  101  A    between atoms: _243  and  _244
REMARK  102  A    between atoms: _247  and  _249
REMARK  103  A    between atoms: _249  and  _250
REMARK  104  A    between atoms: _249  and  _252
REMARK  105  A    between atoms: _252  and  _253
REMARK  106  A    between atoms: _253  and  _254
REMARK  107  A    between atoms: _254  and  _255
REMARK  108  A    between atoms: _264  and  _266
REMARK  109  A    between atoms: _266  and  _267
REMARK  110  A    between atoms: _266  and  _269
REMARK  111  A    between atoms: _269  and  _270
REMARK  112  A    between atoms: _273  and  _275
REMARK  113  A    between atoms: _275  and  _276
REMARK  114  A    between atoms: _275  and  _278
REMARK  115  A    between atoms: _278  and  _279
REMARK  116  A    between atoms: _279  and  _280
REMARK  117  A    between atoms: _280  and  _281
REMARK  118  A    between atoms: _290  and  _292
REMARK  119  A    between atoms: _292  and  _293
REMARK  120  A    between atoms: _292  and  _295
REMARK  121  A    between atoms: _295  and  _296
REMARK  122  A    between atoms: _301  and  _303
REMARK  123  A    between atoms: _303  and  _304
REMARK  124  A    between atoms: _303  and  _306
REMARK  125  A    between atoms: _306  and  _307
REMARK  126  A    between atoms: _310  and  _312
REMARK  127  A    between atoms: _312  and  _313
REMARK  128  A    between atoms: _312  and  _315
REMARK  129  A    between atoms: _315  and  _316
REMARK  130  A    between atoms: _319  and  _321
REMARK  131  A    between atoms: _321  and  _322
REMARK  132  A    between atoms: _321  and  _324
REMARK  133  A    between atoms: _324  and  _325
REMARK  134  A    between atoms: _327  and  _329
REMARK  135  A    between atoms: _329  and  _330
REMARK  136  A    between atoms: _329  and  _332
REMARK  137  A    between atoms: _332  and  _333
REMARK  138  A    between atoms: _336  and  _338
REMARK  139  A    between atoms: _338  and  _339
REMARK  140  A    between atoms: _338  and  _341
REMARK  141  A    between atoms: _341  and  _342
REMARK  142  A    between atoms: _342  and  _343
REMARK  143  A    between atoms: _348  and  _350
REMARK  144  A    between atoms: _350  and  _351
REMARK  145  A    between atoms: _354  and  _356
REMARK  146  A    between atoms: _356  and  _357
REMARK  147  A    between atoms: _356  and  _359
REMARK  148  A    between atoms: _359  and  _360
REMARK  149  A    between atoms: _365  and  _366
REMARK  150  A    between atoms: _368  and  _370
REMARK  151  A    between atoms: _370  and  _371
REMARK  152  A    between atoms: _370  and  _373
REMARK  153  A    between atoms: _373  and  _374
REMARK  154  A    between atoms: _374  and  _375
REMARK  155  A    between atoms: _380  and  _382
REMARK  156  A    between atoms: _382  and  _383
REMARK  157  A    between atoms: _385  and  _387
REMARK  158  A    between atoms: _387  and  _388
REMARK  159  A    between atoms: _390  and  _392
REMARK  160  A    between atoms: _392  and  _393
REMARK  161  A    between atoms: _392  and  _395
REMARK  162  A    between atoms: _395  and  _396
REMARK  163  A    between atoms: _396  and  _397
REMARK  164  A    between atoms: _397  and  _398
REMARK  165  A    between atoms: _407  and  _409
REMARK  166  A    between atoms: _409  and  _410
REMARK  167  A    between atoms: _409  and  _412
REMARK  168  A    between atoms: _412  and  _413
REMARK  169  A    between atoms: _416  and  _418
REMARK  170  A    between atoms: _418  and  _419
REMARK  171  A    between atoms: _418  and  _421
REMARK  172  A    between atoms: _424  and  _426
REMARK  173  A    between atoms: _426  and  _427
REMARK  174  A    between atoms: _426  and  _429
REMARK  175  A    between atoms: _432  and  _434
REMARK  176  A    between atoms: _434  and  _435
REMARK  177  A    between atoms: _437  and  _439
REMARK  178  A    between atoms: _439  and  _440
REMARK  179  A    between atoms: _439  and  _442
REMARK  180  A    between atoms: _442  and  _443
REMARK  181  A    between atoms: _446  and  _448
REMARK  182  A    between atoms: _448  and  _449
REMARK  183  A    between atoms: _448  and  _451
REMARK  184  A    between atoms: _451  and  _452
REMARK  185  A    between atoms: _452  and  _453
REMARK  186  A    between atoms: _453  and  _454
REMARK  187  A    between atoms: _454  and  _455
REMARK  188  A    between atoms: _459  and  _461
REMARK  189  A    between atoms: _461  and  _462
REMARK  190  A    between atoms: _461  and  _464
REMARK  191  A    between atoms: _464  and  _465
REMARK  192  A    between atoms: _465  and  _466
REMARK  193  A    between atoms: _466  and  _467
REMARK  194  A    between atoms: _476  and  _478
REMARK  195  A    between atoms: _478  and  _479
REMARK  196  A    between atoms: _482  and  _484
REMARK  197  A    between atoms: _484  and  _485
REMARK  198  A    between atoms: _484  and  _487
REMARK  199  A    between atoms: _487  and  _488
REMARK  200  A    between atoms: _488  and  _489
REMARK  201  A    between atoms: _489  and  _490
REMARK  202  A    between atoms: _499  and  _501
REMARK  203  A    between atoms: _501  and  _502
REMARK  204  A    between atoms: _505  and  _507
REMARK  205  A    between atoms: _507  and  _508
REMARK  206  A    between atoms: _507  and  _510
REMARK  207  A    between atoms: _510  and  _511
REMARK  208  A    between atoms: _511  and  _512
REMARK  209  A    between atoms: _512  and  _513
REMARK  210  A    between atoms: _522  and  _524
REMARK  211  A    between atoms: _524  and  _525
REMARK  212  A    between atoms: _527  and  _529
REMARK  213  A    between atoms: _529  and  _530
REMARK  214  A    between atoms: _529  and  _532
REMARK  215  A    between atoms: _532  and  _533
REMARK  216  A    between atoms: _533  and  _534
REMARK  217  A    between atoms: _537  and  _539
REMARK  218  A    between atoms: _539  and  _540
REMARK  219  A    between atoms: _539  and  _542
REMARK  220  A    between atoms: _542  and  _543
REMARK  221  A    between atoms: _546  and  _548
REMARK  222  A    between atoms: _548  and  _549
REMARK  223  A    between atoms: _548  and  _551
REMARK  224  A    between atoms: _551  and  _552
REMARK  225  A    between atoms: _552  and  _553
REMARK  226  A    between atoms: _553  and  _554
REMARK  227  A    between atoms: _563  and  _565
REMARK  228  A    between atoms: _565  and  _566
REMARK  229  A    between atoms: _565  and  _568
REMARK  230  A    between atoms: _568  and  _569
REMARK  231  A    between atoms: _572  and  _574
REMARK  232  A    between atoms: _574  and  _575
REMARK  233  A    between atoms: _574  and  _577
REMARK  234  A    between atoms: _577  and  _578
REMARK  235  A    between atoms: _578  and  _579
REMARK  236  A    between atoms: _582  and  _584
REMARK  237  A    between atoms: _584  and  _585
REMARK  238  A    between atoms: _584  and  _587
REMARK  239  A    between atoms: _587  and  _588
REMARK  240  A    between atoms: _588  and  _589
REMARK  241  A    between atoms: _594  and  _596
REMARK  242  A    between atoms: _596  and  _597
REMARK  243  A    between atoms: _596  and  _599
REMARK  244  A    between atoms: _599  and  _600
REMARK  245  A    between atoms: _600  and  _601
REMARK  246  A    between atoms: _604  and  _606
REMARK  247  A    between atoms: _606  and  _607
REMARK  248  A    between atoms: _606  and  _609
REMARK  249  A    between atoms: _609  and  _610
REMARK  250  A    between atoms: _616  and  _618
REMARK  251  A    between atoms: _618  and  _619
REMARK  252  A    between atoms: _618  and  _621
REMARK  253  A    between atoms: _621  and  _622
REMARK  254  A    between atoms: _628  and  _630
REMARK  255  A    between atoms: _630  and  _631
REMARK  256  A    between atoms: _630  and  _633
REMARK  257  A    between atoms: _633  and  _634
REMARK  258  A    between atoms: _637  and  _639
REMARK  259  A    between atoms: _639  and  _640
REMARK  260  A    between atoms: _639  and  _642
REMARK  261  A    between atoms: _642  and  _643
REMARK  262  A    between atoms: _648  and  _649
REMARK  263  A    between atoms: _651  and  _653
REMARK  264  A    between atoms: _653  and  _654
REMARK  265  A    between atoms: _657  and  _659
REMARK  266  A    between atoms: _659  and  _660
REMARK  267  A    between atoms: _659  and  _662
REMARK  268  A    between atoms: _662  and  _663
REMARK  269  A    between atoms: _663  and  _664
REMARK  270  A    between atoms: _670  and  _671
REMARK  271  A    between atoms: _676  and  _678
REMARK  272  A    between atoms: _678  and  _679
REMARK  273  A    between atoms: _678  and  _681
REMARK  274  A    between atoms: _681  and  _682
REMARK  275  A    between atoms: _685  and  _687
REMARK  276  A    between atoms: _687  and  _688
REMARK  277  A    between atoms: _687  and  _690
REMARK  278  A    between atoms: _690  and  _691
REMARK  279  A    between atoms: _691  and  _692
REMARK  280  A    between atoms: _695  and  _697
REMARK  281  A    between atoms: _697  and  _698
REMARK  282  A    between atoms: _697  and  _700
REMARK  283  A    between atoms: _703  and  _705
REMARK  284  A    between atoms: _705  and  _706
REMARK  285  A    between atoms: _705  and  _708
REMARK  286  A    between atoms: _708  and  _709
REMARK  287  A    between atoms: _709  and  _710
REMARK                            x       y       z     vdW  Elec       q    Type
REMARK                         _______ _______ _______ _____ _____    ______ ____
ROOT
ATOM      1  NE  ARG A   1      16.508 100.434  13.537  0.00  0.00    -0.265 N 
ATOM      2  HE  ARG A   1      15.595 100.407  14.034  0.00  0.00    +0.259 HD
ATOM      3  CZ  ARG A   1      17.311 101.472  13.778  0.00  0.00    +0.342 C 
ATOM      4  NH2 ARG A   1      16.950 102.395  14.665  0.00  0.00    -0.292 N 
ATOM      5 HH21 ARG A   1      16.044 102.306  15.168  0.00  0.00    +0.255 HD
ATOM      6 HH22 ARG A   1      17.573 103.205  14.855  0.00  0.00    +0.255 HD
ATOM      7  NH1 ARG A   1      18.494 101.571  13.171  0.00  0.00    -0.292 N 
ATOM      8 HH11 ARG A   1      19.112 102.384  13.366  0.00  0.00    +0.255 HD
ATOM      9 HH12 ARG A   1      18.799 100.835  12.502  0.00  0.00    +0.255 HD
ENDROOT
BRANCH   1  10
ATOM     10  CD  ARG A   1      16.818  99.325  12.621  0.00  0.00    +0.174 C 
BRANCH  10  11
ATOM     11  CG  ARG A   1      17.372  98.114  13.418  0.00  0.00    +0.045 C 
BRANCH  11  12
ATOM     12  CB  ARG A   1      17.704  96.868  12.582  0.00  0.00    +0.029 C 
BRANCH  12  13
ATOM     13  CA  ARG A   1      18.185  95.676  13.438  0.00  0.00    +0.133 C 
BRANCH  13  14
ATOM     14  N   ARG A   1      18.374  94.488  12.606  0.00  0.00    -0.239 NA
ATOM     15  H   ARG A   1      18.267  94.550  11.573  0.00  0.00    +0.142 HD
ENDBRANCH  13  14
BRANCH  13  16
ATOM     16  C   ARG A   1      17.150  95.373  14.541  0.00  0.00    +0.224 C 
ATOM     17  O   ARG A   1      17.412  95.555  15.742  0.00  0.00    -0.287 OA
ENDBRANCH  13  16
ENDBRANCH  12  13
ENDBRANCH  11  12
ENDBRANCH  10  11
ENDBRANCH   1  10
TORSDOF 6
REMARK  Name = ../refined-set-2016/5tmp/5tmp_pocket.pdb
REMARK  287 active torsions:
REMARK  status: ('A' for Active; 'I' for Inactive)
REMARK    1  A    between atoms: _1  and  _3
REMARK    2  A    between atoms: _3  and  _4
REMARK    3  A    between atoms: _3  and  _6
REMARK    4  A    between atoms: _6  and  _7
REMARK    5  A    between atoms: _10  and  _12
REMARK    6  A    between atoms: _12  and  _13
REMARK    7  A    between atoms: _12  and  _15
REMARK    8  A    between atoms: _15  and  _16
REMARK    9  A    between atoms: _16  and  _17
REMARK   10  A    between atoms: _20  and  _22
REMARK   11  A    between atoms: _22  and  _23
REMARK   12  A    between atoms: _25  and  _27
REMARK   13  A    between atoms: _27  and  _28
REMARK   14  A    between atoms: _27  and  _30
REMARK   15  A    between atoms: _30  and  _31
REMARK   16  A    between atoms: _34  and  _36
REMARK   17  A    between atoms: _36  and  _37
REMARK   18  A    between atoms: _36  and  _39
REMARK   19  A    between atoms: _39  and  _40
REMARK   20  A    between atoms: _40  and  _41
REMARK   21  A    between atoms: _44  and  _46
REMARK   22  A    between atoms: _46  and  _47
REMARK   23  A    between atoms: _49  and  _51
REMARK   24  A    between atoms: _51  and  _52
REMARK   25  A    between atoms: _55  and  _57
REMARK   26  A    between atoms: _57  and  _58
REMARK   27  A    between atoms: _60  and  _62
REMARK   28  A    between atoms: _62  and  _63
REMARK   29  A    between atoms: _62  and  _65
REMARK   30  A    between atoms: _65  and  _66
REMARK   31  A    between atoms: _66  and  _67
REMARK   32  A    between atoms: _67  and  _68
REMARK   33  A    between atoms: _68  and  _69
REMARK   34  A    between atoms: _73  and  _75
REMARK   35  A    between atoms: _75  and  _76
REMARK   36  A    between atoms: _75  and  _78
REMARK   37  A    between atoms: _78  and  _79
REMARK   38  A    between atoms: _82  and  _84
REMARK   39  A    between atoms: _84  and  _85
REMARK   40  A    between atoms: _84  and  _87
REMARK   41  A    between atoms: _87  and  _88
REMARK   42  A    between atoms: _91  and  _93
REMARK   43  A    between atoms: _93  and  _94
REMARK   44  A    between atoms: _97  and  _99
REMARK   45  A    between atoms: _99  and  _100
REMARK   46  A    between atoms: _99  and  _102
REMARK   47  A    between atoms: _102  and  _103
REMARK   48  A    between atoms: _103  and  _104
REMARK   49  A    between atoms: _104  and  _105
REMARK   50  A    between atoms: _114  and  _116
REMARK   51  A    between atoms: _116  and  _117
REMARK   52  A    between atoms: _116  and  _119
REMARK   53  A    between atoms: _119  and  _120
REMARK   54  A    between atoms: _120  and  _121
REMARK   55  A    between atoms: _121  and  _122
REMARK   56  A    between atoms: _131  and  _133
REMARK   57  A    between atoms: _133  and  _134
REMARK   58  A    between atoms: _133  and  _136
REMARK   59  A    between atoms: _136  and  _137
REMARK   60  A    between atoms: _137  and  _138
REMARK   61  A    between atoms: _142  and  _143
REMARK   62  A    between atoms: _148  and  _150
REMARK   63  A    between atoms: _150  and  _151
REMARK   64  A    between atoms: _153  and  _155
REMARK   65  A    between atoms: _155  and  _156
REMARK   66  A    between atoms: _155  and  _158
REMARK   67  A    between atoms: _158  and  _159
REMARK   68  A    between atoms: _159  and  _160
REMARK   69  A    between atoms: _160  and  _161
REMARK   70  A    between atoms: _170  and  _172
REMARK   71  A    between atoms: _172  and  _173
REMARK   72  A    between atoms: _172  and  _175
REMARK   73  A    between atoms: _175  and  _176
REMARK   74  A    between atoms: _179  and  _181
REMARK   75  A    between atoms: _181  and  _182
REMARK   76  A    between atoms: _181  and  _184
REMARK   77  A    between atoms: _184  and  _185
REMARK   78  A    between atoms: _188  and  _190
REMARK   79  A    between atoms: _190  and  _191
REMARK   80  A    between atoms: _190  and  _193
REMARK   81  A    between atoms: _193  and  _194
REMARK   82  A    between atoms: _194  and  _195
REMARK   83  A    between atoms: _198  and  _200
REMARK   84  A    between atoms: _200  and  _201
REMARK   85  A    between atoms: _200  and  _203
REMARK   86  A    between atoms: _206  and  _208
REMARK   87  A    between atoms: _208  and  _209
REMARK   88  A    between atoms: _208  and  _211
REMARK   89  A    between atoms: _211  and  _212
REMARK   90  A    between atoms: _212  and  _213
REMARK   91  A    between atoms: _215  and  _217
REMARK   92  A    between atoms: _217  and  _218
REMARK   93  A    between atoms: _217  and  _220
REMARK   94  A    between atoms: _220  and  _221
REMARK   95  A    between atoms: _227  and  _229
REMARK   96  A    between atoms: _229  and  _230
REMARK   97  A    between atoms: _229  and  _232
REMARK   98  A    between atoms: _232  and  _233
REMARK   99  A    between atoms: _238  and  _239
REMARK  100  A    between atoms: _241  and  _243
REMARK  101  A    between atoms: _243  and  _244
REMARK  102  A    between atoms: _247  and  _249
REMARK  103  A    between atoms: _249  and  _250
REMARK  104  A    between atoms: _249  and  _252
REMARK  105  A    between atoms: _252  and  _253
REMARK  106  A    between atoms: _253  and  _254
REMARK  107  A    between atoms: _254  and  _255
REMARK  108  A    between atoms: _264  and  _266
REMARK  109  A    between atoms: _266  and  _267
REMARK  110  A    between atoms: _266  and  _269
REMARK  111  A    between atoms: _269  and  _270
REMARK  112  A    between atoms: _273  and  _275
REMARK  113  A    between atoms: _275  and  _276
REMARK  114  A    between atoms: _275  and  _278
REMARK  115  A    between atoms: _278  and  _279
REMARK  116  A    between atoms: _279  and  _280
REMARK  117  A    between atoms: _280  and  _281
REMARK  118  A    between atoms: _290  and  _292
REMARK  119  A    between atoms: _292  and  _293
REMARK  120  A    between atoms: _292  and  _295
REMARK  121  A    between atoms: _295  and  _296
REMARK  122  A    between atoms: _301  and  _303
REMARK  123  A    between atoms: _303  and  _304
REMARK  124  A    between atoms: _303  and  _306
REMARK  125  A    between atoms: _306  and  _307
REMARK  126  A    between atoms: _310  and  _312
REMARK  127  A    between atoms: _312  and  _313
REMARK  128  A    between atoms: _312  and  _315
REMARK  129  A    between atoms: _315  and  _316
REMARK  130  A    between atoms: _319  and  _321
REMARK  131  A    between atoms: _321  and  _322
REMARK  132  A    between atoms: _321  and  _324
REMARK  133  A    between atoms: _324  and  _325
REMARK  134  A    between atoms: _327  and  _329
REMARK  135  A    between atoms: _329  and  _330
REMARK  136  A    between atoms: _329  and  _332
REMARK  137  A    between atoms: _332  and  _333
REMARK  138  A    between atoms: _336  and  _338
REMARK  139  A    between atoms: _338  and  _339
REMARK  140  A    between atoms: _338  and  _341
REMARK  141  A    between atoms: _341  and  _342
REMARK  142  A    between atoms: _342  and  _343
REMARK  143  A    between atoms: _348  and  _350
REMARK  144  A    between atoms: _350  and  _351
REMARK  145  A    between atoms: _354  and  _356
REMARK  146  A    between atoms: _356  and  _357
REMARK  147  A    between atoms: _356  and  _359
REMARK  148  A    between atoms: _359  and  _360
REMARK  149  A    between atoms: _365  and  _366
REMARK  150  A    between atoms: _368  and  _370
REMARK  151  A    between atoms: _370  and  _371
REMARK  152  A    between atoms: _370  and  _373
REMARK  153  A    between atoms: _373  and  _374
REMARK  154  A    between atoms: _374  and  _375
REMARK  155  A    between atoms: _380  and  _382
REMARK  156  A    between atoms: _382  and  _383
REMARK  157  A    between atoms: _385  and  _387
REMARK  158  A    between atoms: _387  and  _388
REMARK  159  A    between atoms: _390  and  _392
REMARK  160  A    between atoms: _392  and  _393
REMARK  161  A    between atoms: _392  and  _395
REMARK  162  A    between atoms: _395  and  _396
REMARK  163  A    between atoms: _396  and  _397
REMARK  164  A    between atoms: _397  and  _398
REMARK  165  A    between atoms: _407  and  _409
REMARK  166  A    between atoms: _409  and  _410
REMARK  167  A    between atoms: _409  and  _412
REMARK  168  A    between atoms: _412  and  _413
REMARK  169  A    between atoms: _416  and  _418
REMARK  170  A    between atoms: _418  and  _419
REMARK  171  A    between atoms: _418  and  _421
REMARK  172  A    between atoms: _424  and  _426
REMARK  173  A    between atoms: _426  and  _427
REMARK  174  A    between atoms: _426  and  _429
REMARK  175  A    between atoms: _432  and  _434
REMARK  176  A    between atoms: _434  and  _435
REMARK  177  A    between atoms: _437  and  _439
REMARK  178  A    between atoms: _439  and  _440
REMARK  179  A    between atoms: _439  and  _442
REMARK  180  A    between atoms: _442  and  _443
REMARK  181  A    between atoms: _446  and  _448
REMARK  182  A    between atoms: _448  and  _449
REMARK  183  A    between atoms: _448  and  _451
REMARK  184  A    between atoms: _451  and  _452
REMARK  185  A    between atoms: _452  and  _453
REMARK  186  A    between atoms: _453  and  _454
REMARK  187  A    between atoms: _454  and  _455
REMARK  188  A    between atoms: _459  and  _461
REMARK  189  A    between atoms: _461  and  _462
REMARK  190  A    between atoms: _461  and  _464
REMARK  191  A    between atoms: _464  and  _465
REMARK  192  A    between atoms: _465  and  _466
REMARK  193  A    between atoms: _466  and  _467
REMARK  194  A    between atoms: _476  and  _478
REMARK  195  A    between atoms: _478  and  _479
REMARK  196  A    between atoms: _482  and  _484
REMARK  197  A    between atoms: _484  and  _485
REMARK  198  A    between atoms: _484  and  _487
REMARK  199  A    between atoms: _487  and  _488
REMARK  200  A    between atoms: _488  and  _489
REMARK  201  A    between atoms: _489  and  _490
REMARK  202  A    between atoms: _499  and  _501
REMARK  203  A    between atoms: _501  and  _502
REMARK  204  A    between atoms: _505  and  _507
REMARK  205  A    between atoms: _507  and  _508
REMARK  206  A    between atoms: _507  and  _510
REMARK  207  A    between atoms: _510  and  _511
REMARK  208  A    between atoms: _511  and  _512
REMARK  209  A    between atoms: _512  and  _513
REMARK  210  A    between atoms: _522  and  _524
REMARK  211  A    between atoms: _524  and  _525
REMARK  212  A    between atoms: _527  and  _529
REMARK  213  A    between atoms: _529  and  _530
REMARK  214  A    between atoms: _529  and  _532
REMARK  215  A    between atoms: _532  and  _533
REMARK  216  A    between atoms: _533  and  _534
REMARK  217  A    between atoms: _537  and  _539
REMARK  218  A    between atoms: _539  and  _540
REMARK  219  A    between atoms: _539  and  _542
REMARK  220  A    between atoms: _542  and  _543
REMARK  221  A    between atoms: _546  and  _548
REMARK  222  A    between atoms: _548  and  _549
REMARK  223  A    between atoms: _548  and  _551
REMARK  224  A    between atoms: _551  and  _552
REMARK  225  A    between atoms: _552  and  _553
REMARK  226  A    between atoms: _553  and  _554
REMARK  227  A    between atoms: _563  and  _565
REMARK  228  A    between atoms: _565  and  _566
REMARK  229  A    between atoms: _565  and  _568
REMARK  230  A    between atoms: _568  and  _569
REMARK  231  A    between atoms: _572  and  _574
REMARK  232  A    between atoms: _574  and  _575
REMARK  233  A    between atoms: _574  and  _577
REMARK  234  A    between atoms: _577  and  _578
REMARK  235  A    between atoms: _578  and  _579
REMARK  236  A    between atoms: _582  and  _584
REMARK  237  A    between atoms: _584  and  _585
REMARK  238  A    between atoms: _584  and  _587
REMARK  239  A    between atoms: _587  and  _588
REMARK  240  A    between atoms: _588  and  _589
REMARK  241  A    between atoms: _594  and  _596
REMARK  242  A    between atoms: _596  and  _597
REMARK  243  A    between atoms: _596  and  _599
REMARK  244  A    between atoms: _599  and  _600
REMARK  245  A    between atoms: _600  and  _601
REMARK  246  A    between atoms: _604  and  _606
REMARK  247  A    between atoms: _606  and  _607
REMARK  248  A    between atoms: _606  and  _609
REMARK  249  A    between atoms: _609  and  _610
REMARK  250  A    between atoms: _616  and  _618
REMARK  251  A    between atoms: _618  and  _619
REMARK  252  A    between atoms: _618  and  _621
REMARK  253  A    between atoms: _621  and  _622
REMARK  254  A    between atoms: _628  and  _630
REMARK  255  A    between atoms: _630  and  _631
REMARK  256  A    between atoms: _630  and  _633
REMARK  257  A    between atoms: _633  and  _634
REMARK  258  A    between atoms: _637  and  _639
REMARK  259  A    between atoms: _639  and  _640
REMARK  260  A    between atoms: _639  and  _642
REMARK  261  A    between atoms: _642  and  _643
REMARK  262  A    between atoms: _648  and  _649
REMARK  263  A    between atoms: _651  and  _653
REMARK  264  A    between atoms: _653  and  _654
REMARK  265  A    between atoms: _657  and  _659
REMARK  266  A    between atoms: _659  and  _660
REMARK  267  A    between atoms: _659  and  _662
REMARK  268  A    between atoms: _662  and  _663
REMARK  269  A    between atoms: _663  and  _664
REMARK  270  A    between atoms: _670  and  _671
REMARK  271  A    between atoms: _676  and  _678
REMARK  272  A    between atoms: _678  and  _679
REMARK  273  A    between atoms: _678  and  _681
REMARK  274  A    between atoms: _681  and  _682
REMARK  275  A    between atoms: _685  and  _687
REMARK  276  A    between atoms: _687  and  _688
REMARK  277  A    between atoms: _687  and  _690
REMARK  278  A    between atoms: _690  and  _691
REMARK  279  A    between atoms: _691  and  _692
REMARK  280  A    between atoms: _695  and  _697
REMARK  281  A    between atoms: _697  and  _698
REMARK  282  A    between atoms: _697  and  _700
REMARK  283  A    between atoms: _703  and  _705
REMARK  284  A    between atoms: _705  and  _706
REMARK  285  A    between atoms: _705  and  _708
REMARK  286  A    between atoms: _708  and  _709
REMARK  287  A    between atoms: _709  and  _710
REMARK                            x       y       z     vdW  Elec       q    Type
REMARK                         _______ _______ _______ _____ _____    ______ ____
ROOT
ATOM      1  C   LEU A   1      18.826  94.924  18.949  0.00  0.00    +0.238 C 
ATOM      2  O   LEU A   1      19.313  95.011  20.093  0.00  0.00    -0.274 OA
ATOM      3  N   LEU A   2      17.816  95.693  18.537  0.00  0.00    -0.298 N 
ATOM      4  H   LEU A   2      17.385  95.528  17.605  0.00  0.00    +0.150 HD
ENDROOT
BRANCH   1   5
ATOM      5  CA  LEU A   1      19.368  93.882  17.962  0.00  0.00    +0.145 C 
BRANCH   5   6
ATOM      6  N   LEU A   1      18.401  93.170  17.132  0.00  0.00    -0.238 NA
ATOM      7  H   LEU A   1      18.346  93.383  16.116  0.00  0.00    +0.142 HD
ENDBRANCH   5   6
BRANCH   5   8
ATOM      8  CB  LEU A   1      20.412  94.557  17.070  0.00  0.00    +0.026 C 
BRANCH   8   9
ATOM      9  CG  LEU A   1      21.546  93.664  16.554  0.00  0.00    +0.002 C 
ATOM     10  CD2 LEU A   1      22.494  93.337  17.717  0.00  0.00    +0.000 C 
ATOM     11  CD1 LEU A   1      22.281  94.353  15.413  0.00  0.00    +0.000 C 
ENDBRANCH   8   9
ENDBRANCH   5   8
ENDBRANCH   1   5
BRANCH   3  12
ATOM     12  CA  LEU A   2      17.309  96.779  19.402  0.00  0.00    +0.137 C 
BRANCH  12  13
ATOM     13  C   LEU A   2      15.976  96.621  20.132  0.00  0.00    +0.227 C 
ATOM     14  O   LEU A   2      15.760  97.256  21.166  0.00  0.00    -0.286 OA
ENDBRANCH  12  13
BRANCH  12  15
ATOM     15  CB  LEU A   2      17.291  98.086  18.601  0.00  0.00    +0.028 C 
BRANCH  15  16
ATOM     16  CG  LEU A   2      18.511  98.259  17.675  0.00  0.00    +0.002 C 
ATOM     17  CD2 LEU A   2      19.778  98.440  18.515  0.00  0.00    +0.000 C 
ATOM     18  CD1 LEU A   2      18.303  99.434  16.754  0.00  0.00    +0.000 C 
ENDBRANCH  15  16
ENDBRANCH  12  15
ENDBRANCH   3  12
TORSDOF 8
REMARK  Name = ../refined-set-2016/5tmp/5tmp_pocket.pdb
REMARK  287 active torsions:
REMARK  status: ('A' for Active; 'I' for Inactive)
REMARK    1  A    between atoms: _1  and  _3
REMARK    2  A    between atoms: _3  and  _4
REMARK    3  A    between atoms: _3  and  _6
REMARK    4  A    between atoms: _6  and  _7
REMARK    5  A    between atoms: _10  and  _12
REMARK    6  A    between atoms: _12  and  _13
REMARK    7  A    between atoms: _12  and  _15
REMARK    8  A    between atoms: _15  and  _16
REMARK    9  A    between atoms: _16  and  _17
REMARK   10  A    between atoms: _20  and  _22
REMARK   11  A    between atoms: _22  and  _23
REMARK   12  A    between atoms: _25  and  _27
REMARK   13  A    between atoms: _27  and  _28
REMARK   14  A    between atoms: _27  and  _30
REMARK   15  A    between atoms: _30  and  _31
REMARK   16  A    between atoms: _34  and  _36
REMARK   17  A    between atoms: _36  and  _37
REMARK   18  A    between atoms: _36  and  _39
REMARK   19  A    between atoms: _39  and  _40
REMARK   20  A    between atoms: _40  and  _41
REMARK   21  A    between atoms: _44  and  _46
REMARK   22  A    between atoms: _46  and  _47
REMARK   23  A    between atoms: _49  and  _51
REMARK   24  A    between atoms: _51  and  _52
REMARK   25  A    between atoms: _55  and  _57
REMARK   26  A    between atoms: _57  and  _58
REMARK   27  A    between atoms: _60  and  _62
REMARK   28  A    between atoms: _62  and  _63
REMARK   29  A    between atoms: _62  and  _65
REMARK   30  A    between atoms: _65  and  _66
REMARK   31  A    between atoms: _66  and  _67
REMARK   32  A    between atoms: _67  and  _68
REMARK   33  A    between atoms: _68  and  _69
REMARK   34  A    between atoms: _73  and  _75
REMARK   35  A    between atoms: _75  and  _76
REMARK   36  A    between atoms: _75  and  _78
REMARK   37  A    between atoms: _78  and  _79
REMARK   38  A    between atoms: _82  and  _84
REMARK   39  A    between atoms: _84  and  _85
REMARK   40  A    between atoms: _84  and  _87
REMARK   41  A    between atoms: _87  and  _88
REMARK   42  A    between atoms: _91  and  _93
REMARK   43  A    between atoms: _93  and  _94
REMARK   44  A    between atoms: _97  and  _99
REMARK   45  A    between atoms: _99  and  _100
REMARK   46  A    between atoms: _99  and  _102
REMARK   47  A    between atoms: _102  and  _103
REMARK   48  A    between atoms: _103  and  _104
REMARK   49  A    between atoms: _104  and  _105
REMARK   50  A    between atoms: _114  and  _116
REMARK   51  A    between atoms: _116  and  _117
REMARK   52  A    between atoms: _116  and  _119
REMARK   53  A    between atoms: _119  and  _120
REMARK   54  A    between atoms: _120  and  _121
REMARK   55  A    between atoms: _121  and  _122
REMARK   56  A    between atoms: _131  and  _133
REMARK   57  A    between atoms: _133  and  _134
REMARK   58  A    between atoms: _133  and  _136
REMARK   59  A    between atoms: _136  and  _137
REMARK   60  A    between atoms: _137  and  _138
REMARK   61  A    between atoms: _142  and  _143
REMARK   62  A    between atoms: _148  and  _150
REMARK   63  A    between atoms: _150  and  _151
REMARK   64  A    between atoms: _153  and  _155
REMARK   65  A    between atoms: _155  and  _156
REMARK   66  A    between atoms: _155  and  _158
REMARK   67  A    between atoms: _158  and  _159
REMARK   68  A    between atoms: _159  and  _160
REMARK   69  A    between atoms: _160  and  _161
REMARK   70  A    between atoms: _170  and  _172
REMARK   71  A    between atoms: _172  and  _173
REMARK   72  A    between atoms: _172  and  _175
REMARK   73  A    between atoms: _175  and  _176
REMARK   74  A    between atoms: _179  and  _181
REMARK   75  A    between atoms: _181  and  _182
REMARK   76  A    between atoms: _181  and  _184
REMARK   77  A    between atoms: _184  and  _185
REMARK   78  A    between atoms: _188  and  _190
REMARK   79  A    between atoms: _190  and  _191
REMARK   80  A    between atoms: _190  and  _193
REMARK   81  A    between atoms: _193  and  _194
REMARK   82  A    between atoms: _194  and  _195
REMARK   83  A    between atoms: _198  and  _200
REMARK   84  A    between atoms: _200  and  _201
REMARK   85  A    between atoms: _200  and  _203
REMARK   86  A    between atoms: _206  and  _208
REMARK   87  A    between atoms: _208  and  _209
REMARK   88  A    between atoms: _208  and  _211
REMARK   89  A    between atoms: _211  and  _212
REMARK   90  A    between atoms: _212  and  _213
REMARK   91  A    between atoms: _215  and  _217
REMARK   92  A    between atoms: _217  and  _218
REMARK   93  A    between atoms: _217  and  _220
REMARK   94  A    between atoms: _220  and  _221
REMARK   95  A    between atoms: _227  and  _229
REMARK   96  A    between atoms: _229  and  _230
REMARK   97  A    between atoms: _229  and  _232
REMARK   98  A    between atoms: _232  and  _233
REMARK   99  A    between atoms: _238  and  _239
REMARK  100  A    between atoms: _241  and  _243
REMARK  101  A    between atoms: _243  and  _244
REMARK  102  A    between atoms: _247  and  _249
REMARK  103  A    between atoms: _249  and  _250
REMARK  104  A    between atoms: _249  and  _252
REMARK  105  A    between atoms: _252  and  _253
REMARK  106  A    between atoms: _253  and  _254
REMARK  107  A    between atoms: _254  and  _255
REMARK  108  A    between atoms: _264  and  _266
REMARK  109  A    between atoms: _266  and  _267
REMARK  110  A    between atoms: _266  and  _269
REMARK  111  A    between atoms: _269  and  _270
REMARK  112  A    between atoms: _273  and  _275
REMARK  113  A    between atoms: _275  and  _276
REMARK  114  A    between atoms: _275  and  _278
REMARK  115  A    between atoms: _278  and  _279
REMARK  116  A    between atoms: _279  and  _280
REMARK  117  A    between atoms: _280  and  _281
REMARK  118  A    between atoms: _290  and  _292
REMARK  119  A    between atoms: _292  and  _293
REMARK  120  A    between atoms: _292  and  _295
REMARK  121  A    between atoms: _295  and  _296
REMARK  122  A    between atoms: _301  and  _303
REMARK  123  A    between atoms: _303  and  _304
REMARK  124  A    between atoms: _303  and  _306
REMARK  125  A    between atoms: _306  and  _307
REMARK  126  A    between atoms: _310  and  _312
REMARK  127  A    between atoms: _312  and  _313
REMARK  128  A    between atoms: _312  and  _315
REMARK  129  A    between atoms: _315  and  _316
REMARK  130  A    between atoms: _319  and  _321
REMARK  131  A    between atoms: _321  and  _322
REMARK  132  A    between atoms: _321  and  _324
REMARK  133  A    between atoms: _324  and  _325
REMARK  134  A    between atoms: _327  and  _329
REMARK  135  A    between atoms: _329  and  _330
REMARK  136  A    between atoms: _329  and  _332
REMARK  137  A    between atoms: _332  and  _333
REMARK  138  A    between atoms: _336  and  _338
REMARK  139  A    between atoms: _338  and  _339
REMARK  140  A    between atoms: _338  and  _341
REMARK  141  A    between atoms: _341  and  _342
REMARK  142  A    between atoms: _342  and  _343
REMARK  143  A    between atoms: _348  and  _350
REMARK  144  A    between atoms: _350  and  _351
REMARK  145  A    between atoms: _354  and  _356
REMARK  146  A    between atoms: _356  and  _357
REMARK  147  A    between atoms: _356  and  _359
REMARK  148  A    between atoms: _359  and  _360
REMARK  149  A    between atoms: _365  and  _366
REMARK  150  A    between atoms: _368  and  _370
REMARK  151  A    between atoms: _370  and  _371
REMARK  152  A    between atoms: _370  and  _373
REMARK  153  A    between atoms: _373  and  _374
REMARK  154  A    between atoms: _374  and  _375
REMARK  155  A    between atoms: _380  and  _382
REMARK  156  A    between atoms: _382  and  _383
REMARK  157  A    between atoms: _385  and  _387
REMARK  158  A    between atoms: _387  and  _388
REMARK  159  A    between atoms: _390  and  _392
REMARK  160  A    between atoms: _392  and  _393
REMARK  161  A    between atoms: _392  and  _395
REMARK  162  A    between atoms: _395  and  _396
REMARK  163  A    between atoms: _396  and  _397
REMARK  164  A    between atoms: _397  and  _398
REMARK  165  A    between atoms: _407  and  _409
REMARK  166  A    between atoms: _409  and  _410
REMARK  167  A    between atoms: _409  and  _412
REMARK  168  A    between atoms: _412  and  _413
REMARK  169  A    between atoms: _416  and  _418
REMARK  170  A    between atoms: _418  and  _419
REMARK  171  A    between atoms: _418  and  _421
REMARK  172  A    between atoms: _424  and  _426
REMARK  173  A    between atoms: _426  and  _427
REMARK  174  A    between atoms: _426  and  _429
REMARK  175  A    between atoms: _432  and  _434
REMARK  176  A    between atoms: _434  and  _435
REMARK  177  A    between atoms: _437  and  _439
REMARK  178  A    between atoms: _439  and  _440
REMARK  179  A    between atoms: _439  and  _442
REMARK  180  A    between atoms: _442  and  _443
REMARK  181  A    between atoms: _446  and  _448
REMARK  182  A    between atoms: _448  and  _449
REMARK  183  A    between atoms: _448  and  _451
REMARK  184  A    between atoms: _451  and  _452
REMARK  185  A    between atoms: _452  and  _453
REMARK  186  A    between atoms: _453  and  _454
REMARK  187  A    between atoms: _454  and  _455
REMARK  188  A    between atoms: _459  and  _461
REMARK  189  A    between atoms: _461  and  _462
REMARK  190  A    between atoms: _461  and  _464
REMARK  191  A    between atoms: _464  and  _465
REMARK  192  A    between atoms: _465  and  _466
REMARK  193  A    between atoms: _466  and  _467
REMARK  194  A    between atoms: _476  and  _478
REMARK  195  A    between atoms: _478  and  _479
REMARK  196  A    between atoms: _482  and  _484
REMARK  197  A    between atoms: _484  and  _485
REMARK  198  A    between atoms: _484  and  _487
REMARK  199  A    between atoms: _487  and  _488
REMARK  200  A    between atoms: _488  and  _489
REMARK  201  A    between atoms: _489  and  _490
REMARK  202  A    between atoms: _499  and  _501
REMARK  203  A    between atoms: _501  and  _502
REMARK  204  A    between atoms: _505  and  _507
REMARK  205  A    between atoms: _507  and  _508
REMARK  206  A    between atoms: _507  and  _510
REMARK  207  A    between atoms: _510  and  _511
REMARK  208  A    between atoms: _511  and  _512
REMARK  209  A    between atoms: _512  and  _513
REMARK  210  A    between atoms: _522  and  _524
REMARK  211  A    between atoms: _524  and  _525
REMARK  212  A    between atoms: _527  and  _529
REMARK  213  A    between atoms: _529  and  _530
REMARK  214  A    between atoms: _529  and  _532
REMARK  215  A    between atoms: _532  and  _533
REMARK  216  A    between atoms: _533  and  _534
REMARK  217  A    between atoms: _537  and  _539
REMARK  218  A    between atoms: _539  and  _540
REMARK  219  A    between atoms: _539  and  _542
REMARK  220  A    between atoms: _542  and  _543
REMARK  221  A    between atoms: _546  and  _548
REMARK  222  A    between atoms: _548  and  _549
REMARK  223  A    between atoms: _548  and  _551
REMARK  224  A    between atoms: _551  and  _552
REMARK  225  A    between atoms: _552  and  _553
REMARK  226  A    between atoms: _553  and  _554
REMARK  227  A    between atoms: _563  and  _565
REMARK  228  A    between atoms: _565  and  _566
REMARK  229  A    between atoms: _565  and  _568
REMARK  230  A    between atoms: _568  and  _569
REMARK  231  A    between atoms: _572  and  _574
REMARK  232  A    between atoms: _574  and  _575
REMARK  233  A    between atoms: _574  and  _577
REMARK  234  A    between atoms: _577  and  _578
REMARK  235  A    between atoms: _578  and  _579
REMARK  236  A    between atoms: _582  and  _584
REMARK  237  A    between atoms: _584  and  _585
REMARK  238  A    between atoms: _584  and  _587
REMARK  239  A    between atoms: _587  and  _588
REMARK  240  A    between atoms: _588  and  _589
REMARK  241  A    between atoms: _594  and  _596
REMARK  242  A    between atoms: _596  and  _597
REMARK  243  A    between atoms: _596  and  _599
REMARK  244  A    between atoms: _599  and  _600
REMARK  245  A    between atoms: _600  and  _601
REMARK  246  A    between atoms: _604  and  _606
REMARK  247  A    between atoms: _606  and  _607
REMARK  248  A    between atoms: _606  and  _609
REMARK  249  A    between atoms: _609  and  _610
REMARK  250  A    between atoms: _616  and  _618
REMARK  251  A    between atoms: _618  and  _619
REMARK  252  A    between atoms: _618  and  _621
REMARK  253  A    between atoms: _621  and  _622
REMARK  254  A    between atoms: _628  and  _630
REMARK  255  A    between atoms: _630  and  _631
REMARK  256  A    between atoms: _630  and  _633
REMARK  257  A    between atoms: _633  and  _634
REMARK  258  A    between atoms: _637  and  _639
REMARK  259  A    between atoms: _639  and  _640
REMARK  260  A    between atoms: _639  and  _642
REMARK  261  A    between atoms: _642  and  _643
REMARK  262  A    between atoms: _648  and  _649
REMARK  263  A    between atoms: _651  and  _653
REMARK  264  A    between atoms: _653  and  _654
REMARK  265  A    between atoms: _657  and  _659
REMARK  266  A    between atoms: _659  and  _660
REMARK  267  A    between atoms: _659  and  _662
REMARK  268  A    between atoms: _662  and  _663
REMARK  269  A    between atoms: _663  and  _664
REMARK  270  A    between atoms: _670  and  _671
REMARK  271  A    between atoms: _676  and  _678
REMARK  272  A    between atoms: _678  and  _679
REMARK  273  A    between atoms: _678  and  _681
REMARK  274  A    between atoms: _681  and  _682
REMARK  275  A    between atoms: _685  and  _687
REMARK  276  A    between atoms: _687  and  _688
REMARK  277  A    between atoms: _687  and  _690
REMARK  278  A    between atoms: _690  and  _691
REMARK  279  A    between atoms: _691  and  _692
REMARK  280  A    between atoms: _695  and  _697
REMARK  281  A    between atoms: _697  and  _698
REMARK  282  A    between atoms: _697  and  _700
REMARK  283  A    between atoms: _703  and  _705
REMARK  284  A    between atoms: _705  and  _706
REMARK  285  A    between atoms: _705  and  _708
REMARK  286  A    between atoms: _708  and  _709
REMARK  287  A    between atoms: _709  and  _710
REMARK                            x       y       z     vdW  Elec       q    Type
REMARK                         _______ _______ _______ _____ _____    ______ ____
ROOT
ATOM      1  C   GLU A   1      26.627  92.032  18.109  0.00  0.00    +0.238 C 
ATOM      2  N   VAL A   2      27.939  91.937  18.307  0.00  0.00    -0.298 N 
ATOM      3  H   VAL A   2      28.302  91.487  19.171  0.00  0.00    +0.150 HD
ATOM      4  O   GLU A   1      26.146  92.530  17.077  0.00  0.00    -0.274 OA
ENDROOT
BRANCH   1   5
ATOM      5  CA  GLU A   1      25.720  91.468  19.212  0.00  0.00    +0.145 C 
BRANCH   5   6
ATOM      6  N   GLU A   1      26.038  90.073  19.534  0.00  0.00    -0.238 NA
ATOM      7  H   GLU A   1      26.313  89.829  20.507  0.00  0.00    +0.142 HD
ENDBRANCH   5   6
BRANCH   5   8
ATOM      8  CB  GLU A   1      25.828  92.336  20.473  0.00  0.00    +0.038 C 
BRANCH   8   9
ATOM      9  CG  GLU A   1      25.352  93.777  20.275  0.00  0.00    +0.116 C 
BRANCH   9  10
ATOM     10  CD  GLU A   1      25.179  94.499  21.591  0.00  0.00    +0.365 C 
ATOM     11  OE2 GLU A   1      26.203  94.958  22.136  0.00  0.00    -0.246 OA
ATOM     12  OE1 GLU A   1      24.029  94.607  22.091  0.00  0.00    -0.246 OA
ENDBRANCH   9  10
ENDBRANCH   8   9
ENDBRANCH   5   8
ENDBRANCH   1   5
BRANCH   2  13
ATOM     13  CA  VAL A   2      28.870  92.463  17.313  0.00  0.00    +0.137 C 
BRANCH  13  14
ATOM     14  CB  VAL A   2      30.385  92.371  17.787  0.00  0.00    +0.026 C 
ATOM     15  CG2 VAL A   2      30.465  92.368  19.299  0.00  0.00    +0.002 C 
ATOM     16  CG1 VAL A   2      31.052  91.130  17.245  0.00  0.00    +0.002 C 
ENDBRANCH  13  14
BRANCH  13  17
ATOM     17  C   VAL A   2      28.687  91.733  16.005  0.00  0.00    +0.227 C 
ATOM     18  O   VAL A   2      28.654  92.346  14.940  0.00  0.00    -0.286 OA
ENDBRANCH  13  17
ENDBRANCH   2  13
TORSDOF 8
REMARK  Name = ../refined-set-2016/5tmp/5tmp_pocket.pdb
REMARK  287 active torsions:
REMARK  status: ('A' for Active; 'I' for Inactive)
REMARK    1  A    between atoms: _1  and  _3
REMARK    2  A    between atoms: _3  and  _4
REMARK    3  A    between atoms: _3  and  _6
REMARK    4  A    between atoms: _6  and  _7
REMARK    5  A    between atoms: _10  and  _12
REMARK    6  A    between atoms: _12  and  _13
REMARK    7  A    between atoms: _12  and  _15
REMARK    8  A    between atoms: _15  and  _16
REMARK    9  A    between atoms: _16  and  _17
REMARK   10  A    between atoms: _20  and  _22
REMARK   11  A    between atoms: _22  and  _23
REMARK   12  A    between atoms: _25  and  _27
REMARK   13  A    between atoms: _27  and  _28
REMARK   14  A    between atoms: _27  and  _30
REMARK   15  A    between atoms: _30  and  _31
REMARK   16  A    between atoms: _34  and  _36
REMARK   17  A    between atoms: _36  and  _37
REMARK   18  A    between atoms: _36  and  _39
REMARK   19  A    between atoms: _39  and  _40
REMARK   20  A    between atoms: _40  and  _41
REMARK   21  A    between atoms: _44  and  _46
REMARK   22  A    between atoms: _46  and  _47
REMARK   23  A    between atoms: _49  and  _51
REMARK   24  A    between atoms: _51  and  _52
REMARK   25  A    between atoms: _55  and  _57
REMARK   26  A    between atoms: _57  and  _58
REMARK   27  A    between atoms: _60  and  _62
REMARK   28  A    between atoms: _62  and  _63
REMARK   29  A    between atoms: _62  and  _65
REMARK   30  A    between atoms: _65  and  _66
REMARK   31  A    between atoms: _66  and  _67
REMARK   32  A    between atoms: _67  and  _68
REMARK   33  A    between atoms: _68  and  _69
REMARK   34  A    between atoms: _73  and  _75
REMARK   35  A    between atoms: _75  and  _76
REMARK   36  A    between atoms: _75  and  _78
REMARK   37  A    between atoms: _78  and  _79
REMARK   38  A    between atoms: _82  and  _84
REMARK   39  A    between atoms: _84  and  _85
REMARK   40  A    between atoms: _84  and  _87
REMARK   41  A    between atoms: _87  and  _88
REMARK   42  A    between atoms: _91  and  _93
REMARK   43  A    between atoms: _93  and  _94
REMARK   44  A    between atoms: _97  and  _99
REMARK   45  A    between atoms: _99  and  _100
REMARK   46  A    between atoms: _99  and  _102
REMARK   47  A    between atoms: _102  and  _103
REMARK   48  A    between atoms: _103  and  _104
REMARK   49  A    between atoms: _104  and  _105
REMARK   50  A    between atoms: _114  and  _116
REMARK   51  A    between atoms: _116  and  _117
REMARK   52  A    between atoms: _116  and  _119
REMARK   53  A    between atoms: _119  and  _120
REMARK   54  A    between atoms: _120  and  _121
REMARK   55  A    between atoms: _121  and  _122
REMARK   56  A    between atoms: _131  and  _133
REMARK   57  A    between atoms: _133  and  _134
REMARK   58  A    between atoms: _133  and  _136
REMARK   59  A    between atoms: _136  and  _137
REMARK   60  A    between atoms: _137  and  _138
REMARK   61  A    between atoms: _142  and  _143
REMARK   62  A    between atoms: _148  and  _150
REMARK   63  A    between atoms: _150  and  _151
REMARK   64  A    between atoms: _153  and  _155
REMARK   65  A    between atoms: _155  and  _156
REMARK   66  A    between atoms: _155  and  _158
REMARK   67  A    between atoms: _158  and  _159
REMARK   68  A    between atoms: _159  and  _160
REMARK   69  A    between atoms: _160  and  _161
REMARK   70  A    between atoms: _170  and  _172
REMARK   71  A    between atoms: _172  and  _173
REMARK   72  A    between atoms: _172  and  _175
REMARK   73  A    between atoms: _175  and  _176
REMARK   74  A    between atoms: _179  and  _181
REMARK   75  A    between atoms: _181  and  _182
REMARK   76  A    between atoms: _181  and  _184
REMARK   77  A    between atoms: _184  and  _185
REMARK   78  A    between atoms: _188  and  _190
REMARK   79  A    between atoms: _190  and  _191
REMARK   80  A    between atoms: _190  and  _193
REMARK   81  A    between atoms: _193  and  _194
REMARK   82  A    between atoms: _194  and  _195
REMARK   83  A    between atoms: _198  and  _200
REMARK   84  A    between atoms: _200  and  _201
REMARK   85  A    between atoms: _200  and  _203
REMARK   86  A    between atoms: _206  and  _208
REMARK   87  A    between atoms: _208  and  _209
REMARK   88  A    between atoms: _208  and  _211
REMARK   89  A    between atoms: _211  and  _212
REMARK   90  A    between atoms: _212  and  _213
REMARK   91  A    between atoms: _215  and  _217
REMARK   92  A    between atoms: _217  and  _218
REMARK   93  A    between atoms: _217  and  _220
REMARK   94  A    between atoms: _220  and  _221
REMARK   95  A    between atoms: _227  and  _229
REMARK   96  A    between atoms: _229  and  _230
REMARK   97  A    between atoms: _229  and  _232
REMARK   98  A    between atoms: _232  and  _233
REMARK   99  A    between atoms: _238  and  _239
REMARK  100  A    between atoms: _241  and  _243
REMARK  101  A    between atoms: _243  and  _244
REMARK  102  A    between atoms: _247  and  _249
REMARK  103  A    between atoms: _249  and  _250
REMARK  104  A    between atoms: _249  and  _252
REMARK  105  A    between atoms: _252  and  _253
REMARK  106  A    between atoms: _253  and  _254
REMARK  107  A    between atoms: _254  and  _255
REMARK  108  A    between atoms: _264  and  _266
REMARK  109  A    between atoms: _266  and  _267
REMARK  110  A    between atoms: _266  and  _269
REMARK  111  A    between atoms: _269  and  _270
REMARK  112  A    between atoms: _273  and  _275
REMARK  113  A    between atoms: _275  and  _276
REMARK  114  A    between atoms: _275  and  _278
REMARK  115  A    between atoms: _278  and  _279
REMARK  116  A    between atoms: _279  and  _280
REMARK  117  A    between atoms: _280  and  _281
REMARK  118  A    between atoms: _290  and  _292
REMARK  119  A    between atoms: _292  and  _293
REMARK  120  A    between atoms: _292  and  _295
REMARK  121  A    between atoms: _295  and  _296
REMARK  122  A    between atoms: _301  and  _303
REMARK  123  A    between atoms: _303  and  _304
REMARK  124  A    between atoms: _303  and  _306
REMARK  125  A    between atoms: _306  and  _307
REMARK  126  A    between atoms: _310  and  _312
REMARK  127  A    between atoms: _312  and  _313
REMARK  128  A    between atoms: _312  and  _315
REMARK  129  A    between atoms: _315  and  _316
REMARK  130  A    between atoms: _319  and  _321
REMARK  131  A    between atoms: _321  and  _322
REMARK  132  A    between atoms: _321  and  _324
REMARK  133  A    between atoms: _324  and  _325
REMARK  134  A    between atoms: _327  and  _329
REMARK  135  A    between atoms: _329  and  _330
REMARK  136  A    between atoms: _329  and  _332
REMARK  137  A    between atoms: _332  and  _333
REMARK  138  A    between atoms: _336  and  _338
REMARK  139  A    between atoms: _338  and  _339
REMARK  140  A    between atoms: _338  and  _341
REMARK  141  A    between atoms: _341  and  _342
REMARK  142  A    between atoms: _342  and  _343
REMARK  143  A    between atoms: _348  and  _350
REMARK  144  A    between atoms: _350  and  _351
REMARK  145  A    between atoms: _354  and  _356
REMARK  146  A    between atoms: _356  and  _357
REMARK  147  A    between atoms: _356  and  _359
REMARK  148  A    between atoms: _359  and  _360
REMARK  149  A    between atoms: _365  and  _366
REMARK  150  A    between atoms: _368  and  _370
REMARK  151  A    between atoms: _370  and  _371
REMARK  152  A    between atoms: _370  and  _373
REMARK  153  A    between atoms: _373  and  _374
REMARK  154  A    between atoms: _374  and  _375
REMARK  155  A    between atoms: _380  and  _382
REMARK  156  A    between atoms: _382  and  _383
REMARK  157  A    between atoms: _385  and  _387
REMARK  158  A    between atoms: _387  and  _388
REMARK  159  A    between atoms: _390  and  _392
REMARK  160  A    between atoms: _392  and  _393
REMARK  161  A    between atoms: _392  and  _395
REMARK  162  A    between atoms: _395  and  _396
REMARK  163  A    between atoms: _396  and  _397
REMARK  164  A    between atoms: _397  and  _398
REMARK  165  A    between atoms: _407  and  _409
REMARK  166  A    between atoms: _409  and  _410
REMARK  167  A    between atoms: _409  and  _412
REMARK  168  A    between atoms: _412  and  _413
REMARK  169  A    between atoms: _416  and  _418
REMARK  170  A    between atoms: _418  and  _419
REMARK  171  A    between atoms: _418  and  _421
REMARK  172  A    between atoms: _424  and  _426
REMARK  173  A    between atoms: _426  and  _427
REMARK  174  A    between atoms: _426  and  _429
REMARK  175  A    between atoms: _432  and  _434
REMARK  176  A    between atoms: _434  and  _435
REMARK  177  A    between atoms: _437  and  _439
REMARK  178  A    between atoms: _439  and  _440
REMARK  179  A    between atoms: _439  and  _442
REMARK  180  A    between atoms: _442  and  _443
REMARK  181  A    between atoms: _446  and  _448
REMARK  182  A    between atoms: _448  and  _449
REMARK  183  A    between atoms: _448  and  _451
REMARK  184  A    between atoms: _451  and  _452
REMARK  185  A    between atoms: _452  and  _453
REMARK  186  A    between atoms: _453  and  _454
REMARK  187  A    between atoms: _454  and  _455
REMARK  188  A    between atoms: _459  and  _461
REMARK  189  A    between atoms: _461  and  _462
REMARK  190  A    between atoms: _461  and  _464
REMARK  191  A    between atoms: _464  and  _465
REMARK  192  A    between atoms: _465  and  _466
REMARK  193  A    between atoms: _466  and  _467
REMARK  194  A    between atoms: _476  and  _478
REMARK  195  A    between atoms: _478  and  _479
REMARK  196  A    between atoms: _482  and  _484
REMARK  197  A    between atoms: _484  and  _485
REMARK  198  A    between atoms: _484  and  _487
REMARK  199  A    between atoms: _487  and  _488
REMARK  200  A    between atoms: _488  and  _489
REMARK  201  A    between atoms: _489  and  _490
REMARK  202  A    between atoms: _499  and  _501
REMARK  203  A    between atoms: _501  and  _502
REMARK  204  A    between atoms: _505  and  _507
REMARK  205  A    between atoms: _507  and  _508
REMARK  206  A    between atoms: _507  and  _510
REMARK  207  A    between atoms: _510  and  _511
REMARK  208  A    between atoms: _511  and  _512
REMARK  209  A    between atoms: _512  and  _513
REMARK  210  A    between atoms: _522  and  _524
REMARK  211  A    between atoms: _524  and  _525
REMARK  212  A    between atoms: _527  and  _529
REMARK  213  A    between atoms: _529  and  _530
REMARK  214  A    between atoms: _529  and  _532
REMARK  215  A    between atoms: _532  and  _533
REMARK  216  A    between atoms: _533  and  _534
REMARK  217  A    between atoms: _537  and  _539
REMARK  218  A    between atoms: _539  and  _540
REMARK  219  A    between atoms: _539  and  _542
REMARK  220  A    between atoms: _542  and  _543
REMARK  221  A    between atoms: _546  and  _548
REMARK  222  A    between atoms: _548  and  _549
REMARK  223  A    between atoms: _548  and  _551
REMARK  224  A    between atoms: _551  and  _552
REMARK  225  A    between atoms: _552  and  _553
REMARK  226  A    between atoms: _553  and  _554
REMARK  227  A    between atoms: _563  and  _565
REMARK  228  A    between atoms: _565  and  _566
REMARK  229  A    between atoms: _565  and  _568
REMARK  230  A    between atoms: _568  and  _569
REMARK  231  A    between atoms: _572  and  _574
REMARK  232  A    between atoms: _574  and  _575
REMARK  233  A    between atoms: _574  and  _577
REMARK  234  A    between atoms: _577  and  _578
REMARK  235  A    between atoms: _578  and  _579
REMARK  236  A    between atoms: _582  and  _584
REMARK  237  A    between atoms: _584  and  _585
REMARK  238  A    between atoms: _584  and  _587
REMARK  239  A    between atoms: _587  and  _588
REMARK  240  A    between atoms: _588  and  _589
REMARK  241  A    between atoms: _594  and  _596
REMARK  242  A    between atoms: _596  and  _597
REMARK  243  A    between atoms: _596  and  _599
REMARK  244  A    between atoms: _599  and  _600
REMARK  245  A    between atoms: _600  and  _601
REMARK  246  A    between atoms: _604  and  _606
REMARK  247  A    between atoms: _606  and  _607
REMARK  248  A    between atoms: _606  and  _609
REMARK  249  A    between atoms: _609  and  _610
REMARK  250  A    between atoms: _616  and  _618
REMARK  251  A    between atoms: _618  and  _619
REMARK  252  A    between atoms: _618  and  _621
REMARK  253  A    between atoms: _621  and  _622
REMARK  254  A    between atoms: _628  and  _630
REMARK  255  A    between atoms: _630  and  _631
REMARK  256  A    between atoms: _630  and  _633
REMARK  257  A    between atoms: _633  and  _634
REMARK  258  A    between atoms: _637  and  _639
REMARK  259  A    between atoms: _639  and  _640
REMARK  260  A    between atoms: _639  and  _642
REMARK  261  A    between atoms: _642  and  _643
REMARK  262  A    between atoms: _648  and  _649
REMARK  263  A    between atoms: _651  and  _653
REMARK  264  A    between atoms: _653  and  _654
REMARK  265  A    between atoms: _657  and  _659
REMARK  266  A    between atoms: _659  and  _660
REMARK  267  A    between atoms: _659  and  _662
REMARK  268  A    between atoms: _662  and  _663
REMARK  269  A    between atoms: _663  and  _664
REMARK  270  A    between atoms: _670  and  _671
REMARK  271  A    between atoms: _676  and  _678
REMARK  272  A    between atoms: _678  and  _679
REMARK  273  A    between atoms: _678  and  _681
REMARK  274  A    between atoms: _681  and  _682
REMARK  275  A    between atoms: _685  and  _687
REMARK  276  A    between atoms: _687  and  _688
REMARK  277  A    between atoms: _687  and  _690
REMARK  278  A    between atoms: _690  and  _691
REMARK  279  A    between atoms: _691  and  _692
REMARK  280  A    between atoms: _695  and  _697
REMARK  281  A    between atoms: _697  and  _698
REMARK  282  A    between atoms: _697  and  _700
REMARK  283  A    between atoms: _703  and  _705
REMARK  284  A    between atoms: _705  and  _706
REMARK  285  A    between atoms: _705  and  _708
REMARK  286  A    between atoms: _708  and  _709
REMARK  287  A    between atoms: _709  and  _710
REMARK                            x       y       z     vdW  Elec       q    Type
REMARK                         _______ _______ _______ _____ _____    ______ ____
ROOT
ATOM      1  CA  PHE A   2      25.936  94.338  13.750  0.00  0.00    +0.153 C 
ENDROOT
BRANCH   1   3
ATOM      2  C   MET A   1      24.994  92.119  13.489  0.00  0.00    +0.238 C 
ATOM      3  N   PHE A   2      25.642  93.004  14.245  0.00  0.00    -0.297 N 
ATOM      4  H   PHE A   2      25.942  92.736  15.204  0.00  0.00    +0.150 HD
ATOM      5  O   MET A   1      24.588  92.383  12.357  0.00  0.00    -0.274 OA
BRANCH   2   6
ATOM      6  CA  MET A   1      24.804  90.721  14.085  0.00  0.00    +0.146 C 
BRANCH   6   7
ATOM      7  N   MET A   1      26.038  90.307  14.767  0.00  0.00    -0.238 NA
ATOM      8  H   MET A   1      26.054  90.222  15.803  0.00  0.00    +0.142 HD
ENDBRANCH   6   7
BRANCH   6   9
ATOM      9  CB  MET A   1      23.615  90.677  15.052  0.00  0.00    +0.038 C 
BRANCH   9  10
ATOM     10  CG  MET A   1      22.916  89.305  15.051  0.00  0.00    +0.060 C 
BRANCH  10  11
ATOM     11  SD  MET A   1      21.494  89.125  16.147  0.00  0.00    -0.139 S 
ATOM     12  CE  MET A   1      22.253  89.455  17.778  0.00  0.00    +0.069 C 
ENDBRANCH  10  11
ENDBRANCH   9  10
ENDBRANCH   6   9
ENDBRANCH   2   6
ENDBRANCH   1   3
BRANCH   1  13
ATOM     13  C   PHE A   2      26.776  94.179  12.495  0.00  0.00    +0.241 C 
ATOM     14  N   TYR A   3      27.710  93.234  12.514  0.00  0.00    -0.298 N 
ATOM     15  H   TYR A   3      27.841  92.644  13.360  0.00  0.00    +0.150 HD
ATOM     16  O   PHE A   2      26.576  94.877  11.501  0.00  0.00    -0.273 OA
BRANCH  14  17
ATOM     17  CA  TYR A   3      28.552  93.031  11.335  0.00  0.00    +0.141 C 
BRANCH  17  18
ATOM     18  C   TYR A   3      27.832  92.385  10.142  0.00  0.00    +0.227 C 
ATOM     19  O   TYR A   3      28.082  92.742   8.983  0.00  0.00    -0.286 OA
ENDBRANCH  17  18
BRANCH  17  20
ATOM     20  CB  TYR A   3      29.790  92.214  11.721  0.00  0.00    +0.054 C 
BRANCH  20  21
ATOM     21  CG  TYR A   3      30.970  93.088  12.045  0.00  0.00    -0.020 A 
ATOM     22  CD2 TYR A   3      31.477  93.160  13.340  0.00  0.00    -0.001 A 
ATOM     23  CE2 TYR A   3      32.511  94.032  13.652  0.00  0.00    +0.036 A 
ATOM     24  CZ  TYR A   3      33.047  94.839  12.653  0.00  0.00    +0.134 A 
ATOM     25  CE1 TYR A   3      32.558  94.772  11.359  0.00  0.00    +0.036 A 
ATOM     26  CD1 TYR A   3      31.530  93.902  11.064  0.00  0.00    -0.001 A 
BRANCH  24  27
ATOM     27  OH  TYR A   3      34.059  95.727  12.930  0.00  0.00    -0.506 OA
ATOM     28  HH  TYR A   3      34.309  96.209  12.102  0.00  0.00    +0.292 HD
ENDBRANCH  24  27
ENDBRANCH  20  21
ENDBRANCH  17  20
ENDBRANCH  14  17
ENDBRANCH   1  13
BRANCH   1  29
ATOM     29  CB  PHE A   2      26.716  95.120  14.797  0.00  0.00    +0.055 C 
BRANCH  29  30
ATOM     30  CG  PHE A   2      25.839  95.848  15.767  0.00  0.00    -0.020 A 
ATOM     31  CD2 PHE A   2      25.957  95.628  17.133  0.00  0.00    -0.004 A 
ATOM     32  CE2 PHE A   2      25.085  96.250  18.033  0.00  0.00    -0.000 A 
ATOM     33  CZ  PHE A   2      24.098  97.091  17.568  0.00  0.00    -0.000 A 
ATOM     34  CE1 PHE A   2      23.974  97.329  16.203  0.00  0.00    -0.000 A 
ATOM     35  CD1 PHE A   2      24.843  96.709  15.308  0.00  0.00    -0.004 A 
ENDBRANCH  29  30
ENDBRANCH   1  29
TORSDOF 14
REMARK  Name = ../refined-set-2016/5tmp/5tmp_pocket.pdb
REMARK  287 active torsions:
REMARK  status: ('A' for Active; 'I' for Inactive)
REMARK    1  A    between atoms: _1  and  _3
REMARK    2  A    between atoms: _3  and  _4
REMARK    3  A    between atoms: _3  and  _6
REMARK    4  A    between atoms: _6  and  _7
REMARK    5  A    between atoms: _10  and  _12
REMARK    6  A    between atoms: _12  and  _13
REMARK    7  A    between atoms: _12  and  _15
REMARK    8  A    between atoms: _15  and  _16
REMARK    9  A    between atoms: _16  and  _17
REMARK   10  A    between atoms: _20  and  _22
REMARK   11  A    between atoms: _22  and  _23
REMARK   12  A    between atoms: _25  and  _27
REMARK   13  A    between atoms: _27  and  _28
REMARK   14  A    between atoms: _27  and  _30
REMARK   15  A    between atoms: _30  and  _31
REMARK   16  A    between atoms: _34  and  _36
REMARK   17  A    between atoms: _36  and  _37
REMARK   18  A    between atoms: _36  and  _39
REMARK   19  A    between atoms: _39  and  _40
REMARK   20  A    between atoms: _40  and  _41
REMARK   21  A    between atoms: _44  and  _46
REMARK   22  A    between atoms: _46  and  _47
REMARK   23  A    between atoms: _49  and  _51
REMARK   24  A    between atoms: _51  and  _52
REMARK   25  A    between atoms: _55  and  _57
REMARK   26  A    between atoms: _57  and  _58
REMARK   27  A    between atoms: _60  and  _62
REMARK   28  A    between atoms: _62  and  _63
REMARK   29  A    between atoms: _62  and  _65
REMARK   30  A    between atoms: _65  and  _66
REMARK   31  A    between atoms: _66  and  _67
REMARK   32  A    between atoms: _67  and  _68
REMARK   33  A    between atoms: _68  and  _69
REMARK   34  A    between atoms: _73  and  _75
REMARK   35  A    between atoms: _75  and  _76
REMARK   36  A    between atoms: _75  and  _78
REMARK   37  A    between atoms: _78  and  _79
REMARK   38  A    between atoms: _82  and  _84
REMARK   39  A    between atoms: _84  and  _85
REMARK   40  A    between atoms: _84  and  _87
REMARK   41  A    between atoms: _87  and  _88
REMARK   42  A    between atoms: _91  and  _93
REMARK   43  A    between atoms: _93  and  _94
REMARK   44  A    between atoms: _97  and  _99
REMARK   45  A    between atoms: _99  and  _100
REMARK   46  A    between atoms: _99  and  _102
REMARK   47  A    between atoms: _102  and  _103
REMARK   48  A    between atoms: _103  and  _104
REMARK   49  A    between atoms: _104  and  _105
REMARK   50  A    between atoms: _114  and  _116
REMARK   51  A    between atoms: _116  and  _117
REMARK   52  A    between atoms: _116  and  _119
REMARK   53  A    between atoms: _119  and  _120
REMARK   54  A    between atoms: _120  and  _121
REMARK   55  A    between atoms: _121  and  _122
REMARK   56  A    between atoms: _131  and  _133
REMARK   57  A    between atoms: _133  and  _134
REMARK   58  A    between atoms: _133  and  _136
REMARK   59  A    between atoms: _136  and  _137
REMARK   60  A    between atoms: _137  and  _138
REMARK   61  A    between atoms: _142  and  _143
REMARK   62  A    between atoms: _148  and  _150
REMARK   63  A    between atoms: _150  and  _151
REMARK   64  A    between atoms: _153  and  _155
REMARK   65  A    between atoms: _155  and  _156
REMARK   66  A    between atoms: _155  and  _158
REMARK   67  A    between atoms: _158  and  _159
REMARK   68  A    between atoms: _159  and  _160
REMARK   69  A    between atoms: _160  and  _161
REMARK   70  A    between atoms: _170  and  _172
REMARK   71  A    between atoms: _172  and  _173
REMARK   72  A    between atoms: _172  and  _175
REMARK   73  A    between atoms: _175  and  _176
REMARK   74  A    between atoms: _179  and  _181
REMARK   75  A    between atoms: _181  and  _182
REMARK   76  A    between atoms: _181  and  _184
REMARK   77  A    between atoms: _184  and  _185
REMARK   78  A    between atoms: _188  and  _190
REMARK   79  A    between atoms: _190  and  _191
REMARK   80  A    between atoms: _190  and  _193
REMARK   81  A    between atoms: _193  and  _194
REMARK   82  A    between atoms: _194  and  _195
REMARK   83  A    between atoms: _198  and  _200
REMARK   84  A    between atoms: _200  and  _201
REMARK   85  A    between atoms: _200  and  _203
REMARK   86  A    between atoms: _206  and  _208
REMARK   87  A    between atoms: _208  and  _209
REMARK   88  A    between atoms: _208  and  _211
REMARK   89  A    between atoms: _211  and  _212
REMARK   90  A    between atoms: _212  and  _213
REMARK   91  A    between atoms: _215  and  _217
REMARK   92  A    between atoms: _217  and  _218
REMARK   93  A    between atoms: _217  and  _220
REMARK   94  A    between atoms: _220  and  _221
REMARK   95  A    between atoms: _227  and  _229
REMARK   96  A    between atoms: _229  and  _230
REMARK   97  A    between atoms: _229  and  _232
REMARK   98  A    between atoms: _232  and  _233
REMARK   99  A    between atoms: _238  and  _239
REMARK  100  A    between atoms: _241  and  _243
REMARK  101  A    between atoms: _243  and  _244
REMARK  102  A    between atoms: _247  and  _249
REMARK  103  A    between atoms: _249  and  _250
REMARK  104  A    between atoms: _249  and  _252
REMARK  105  A    between atoms: _252  and  _253
REMARK  106  A    between atoms: _253  and  _254
REMARK  107  A    between atoms: _254  and  _255
REMARK  108  A    between atoms: _264  and  _266
REMARK  109  A    between atoms: _266  and  _267
REMARK  110  A    between atoms: _266  and  _269
REMARK  111  A    between atoms: _269  and  _270
REMARK  112  A    between atoms: _273  and  _275
REMARK  113  A    between atoms: _275  and  _276
REMARK  114  A    between atoms: _275  and  _278
REMARK  115  A    between atoms: _278  and  _279
REMARK  116  A    between atoms: _279  and  _280
REMARK  117  A    between atoms: _280  and  _281
REMARK  118  A    between atoms: _290  and  _292
REMARK  119  A    between atoms: _292  and  _293
REMARK  120  A    between atoms: _292  and  _295
REMARK  121  A    between atoms: _295  and  _296
REMARK  122  A    between atoms: _301  and  _303
REMARK  123  A    between atoms: _303  and  _304
REMARK  124  A    between atoms: _303  and  _306
REMARK  125  A    between atoms: _306  and  _307
REMARK  126  A    between atoms: _310  and  _312
REMARK  127  A    between atoms: _312  and  _313
REMARK  128  A    between atoms: _312  and  _315
REMARK  129  A    between atoms: _315  and  _316
REMARK  130  A    between atoms: _319  and  _321
REMARK  131  A    between atoms: _321  and  _322
REMARK  132  A    between atoms: _321  and  _324
REMARK  133  A    between atoms: _324  and  _325
REMARK  134  A    between atoms: _327  and  _329
REMARK  135  A    between atoms: _329  and  _330
REMARK  136  A    between atoms: _329  and  _332
REMARK  137  A    between atoms: _332  and  _333
REMARK  138  A    between atoms: _336  and  _338
REMARK  139  A    between atoms: _338  and  _339
REMARK  140  A    between atoms: _338  and  _341
REMARK  141  A    between atoms: _341  and  _342
REMARK  142  A    between atoms: _342  and  _343
REMARK  143  A    between atoms: _348  and  _350
REMARK  144  A    between atoms: _350  and  _351
REMARK  145  A    between atoms: _354  and  _356
REMARK  146  A    between atoms: _356  and  _357
REMARK  147  A    between atoms: _356  and  _359
REMARK  148  A    between atoms: _359  and  _360
REMARK  149  A    between atoms: _365  and  _366
REMARK  150  A    between atoms: _368  and  _370
REMARK  151  A    between atoms: _370  and  _371
REMARK  152  A    between atoms: _370  and  _373
REMARK  153  A    between atoms: _373  and  _374
REMARK  154  A    between atoms: _374  and  _375
REMARK  155  A    between atoms: _380  and  _382
REMARK  156  A    between atoms: _382  and  _383
REMARK  157  A    between atoms: _385  and  _387
REMARK  158  A    between atoms: _387  and  _388
REMARK  159  A    between atoms: _390  and  _392
REMARK  160  A    between atoms: _392  and  _393
REMARK  161  A    between atoms: _392  and  _395
REMARK  162  A    between atoms: _395  and  _396
REMARK  163  A    between atoms: _396  and  _397
REMARK  164  A    between atoms: _397  and  _398
REMARK  165  A    between atoms: _407  and  _409
REMARK  166  A    between atoms: _409  and  _410
REMARK  167  A    between atoms: _409  and  _412
REMARK  168  A    between atoms: _412  and  _413
REMARK  169  A    between atoms: _416  and  _418
REMARK  170  A    between atoms: _418  and  _419
REMARK  171  A    between atoms: _418  and  _421
REMARK  172  A    between atoms: _424  and  _426
REMARK  173  A    between atoms: _426  and  _427
REMARK  174  A    between atoms: _426  and  _429
REMARK  175  A    between atoms: _432  and  _434
REMARK  176  A    between atoms: _434  and  _435
REMARK  177  A    between atoms: _437  and  _439
REMARK  178  A    between atoms: _439  and  _440
REMARK  179  A    between atoms: _439  and  _442
REMARK  180  A    between atoms: _442  and  _443
REMARK  181  A    between atoms: _446  and  _448
REMARK  182  A    between atoms: _448  and  _449
REMARK  183  A    between atoms: _448  and  _451
REMARK  184  A    between atoms: _451  and  _452
REMARK  185  A    between atoms: _452  and  _453
REMARK  186  A    between atoms: _453  and  _454
REMARK  187  A    between atoms: _454  and  _455
REMARK  188  A    between atoms: _459  and  _461
REMARK  189  A    between atoms: _461  and  _462
REMARK  190  A    between atoms: _461  and  _464
REMARK  191  A    between atoms: _464  and  _465
REMARK  192  A    between atoms: _465  and  _466
REMARK  193  A    between atoms: _466  and  _467
REMARK  194  A    between atoms: _476  and  _478
REMARK  195  A    between atoms: _478  and  _479
REMARK  196  A    between atoms: _482  and  _484
REMARK  197  A    between atoms: _484  and  _485
REMARK  198  A    between atoms: _484  and  _487
REMARK  199  A    between atoms: _487  and  _488
REMARK  200  A    between atoms: _488  and  _489
REMARK  201  A    between atoms: _489  and  _490
REMARK  202  A    between atoms: _499  and  _501
REMARK  203  A    between atoms: _501  and  _502
REMARK  204  A    between atoms: _505  and  _507
REMARK  205  A    between atoms: _507  and  _508
REMARK  206  A    between atoms: _507  and  _510
REMARK  207  A    between atoms: _510  and  _511
REMARK  208  A    between atoms: _511  and  _512
REMARK  209  A    between atoms: _512  and  _513
REMARK  210  A    between atoms: _522  and  _524
REMARK  211  A    between atoms: _524  and  _525
REMARK  212  A    between atoms: _527  and  _529
REMARK  213  A    between atoms: _529  and  _530
REMARK  214  A    between atoms: _529  and  _532
REMARK  215  A    between atoms: _532  and  _533
REMARK  216  A    between atoms: _533  and  _534
REMARK  217  A    between atoms: _537  and  _539
REMARK  218  A    between atoms: _539  and  _540
REMARK  219  A    between atoms: _539  and  _542
REMARK  220  A    between atoms: _542  and  _543
REMARK  221  A    between atoms: _546  and  _548
REMARK  222  A    between atoms: _548  and  _549
REMARK  223  A    between atoms: _548  and  _551
REMARK  224  A    between atoms: _551  and  _552
REMARK  225  A    between atoms: _552  and  _553
REMARK  226  A    between atoms: _553  and  _554
REMARK  227  A    between atoms: _563  and  _565
REMARK  228  A    between atoms: _565  and  _566
REMARK  229  A    between atoms: _565  and  _568
REMARK  230  A    between atoms: _568  and  _569
REMARK  231  A    between atoms: _572  and  _574
REMARK  232  A    between atoms: _574  and  _575
REMARK  233  A    between atoms: _574  and  _577
REMARK  234  A    between atoms: _577  and  _578
REMARK  235  A    between atoms: _578  and  _579
REMARK  236  A    between atoms: _582  and  _584
REMARK  237  A    between atoms: _584  and  _585
REMARK  238  A    between atoms: _584  and  _587
REMARK  239  A    between atoms: _587  and  _588
REMARK  240  A    between atoms: _588  and  _589
REMARK  241  A    between atoms: _594  and  _596
REMARK  242  A    between atoms: _596  and  _597
REMARK  243  A    between atoms: _596  and  _599
REMARK  244  A    between atoms: _599  and  _600
REMARK  245  A    between atoms: _600  and  _601
REMARK  246  A    between atoms: _604  and  _606
REMARK  247  A    between atoms: _606  and  _607
REMARK  248  A    between atoms: _606  and  _609
REMARK  249  A    between atoms: _609  and  _610
REMARK  250  A    between atoms: _616  and  _618
REMARK  251  A    between atoms: _618  and  _619
REMARK  252  A    between atoms: _618  and  _621
REMARK  253  A    between atoms: _621  and  _622
REMARK  254  A    between atoms: _628  and  _630
REMARK  255  A    between atoms: _630  and  _631
REMARK  256  A    between atoms: _630  and  _633
REMARK  257  A    between atoms: _633  and  _634
REMARK  258  A    between atoms: _637  and  _639
REMARK  259  A    between atoms: _639  and  _640
REMARK  260  A    between atoms: _639  and  _642
REMARK  261  A    between atoms: _642  and  _643
REMARK  262  A    between atoms: _648  and  _649
REMARK  263  A    between atoms: _651  and  _653
REMARK  264  A    between atoms: _653  and  _654
REMARK  265  A    between atoms: _657  and  _659
REMARK  266  A    between atoms: _659  and  _660
REMARK  267  A    between atoms: _659  and  _662
REMARK  268  A    between atoms: _662  and  _663
REMARK  269  A    between atoms: _663  and  _664
REMARK  270  A    between atoms: _670  and  _671
REMARK  271  A    between atoms: _676  and  _678
REMARK  272  A    between atoms: _678  and  _679
REMARK  273  A    between atoms: _678  and  _681
REMARK  274  A    between atoms: _681  and  _682
REMARK  275  A    between atoms: _685  and  _687
REMARK  276  A    between atoms: _687  and  _688
REMARK  277  A    between atoms: _687  and  _690
REMARK  278  A    between atoms: _690  and  _691
REMARK  279  A    between atoms: _691  and  _692
REMARK  280  A    between atoms: _695  and  _697
REMARK  281  A    between atoms: _697  and  _698
REMARK  282  A    between atoms: _697  and  _700
REMARK  283  A    between atoms: _703  and  _705
REMARK  284  A    between atoms: _705  and  _706
REMARK  285  A    between atoms: _705  and  _708
REMARK  286  A    between atoms: _708  and  _709
REMARK  287  A    between atoms: _709  and  _710
REMARK                            x       y       z     vdW  Elec       q    Type
REMARK                         _______ _______ _______ _____ _____    ______ ____
ROOT
ATOM      1  CB  ARG A   2      28.212  96.375   8.757  0.00  0.00    +0.031 C 
ENDROOT
BRANCH   1   2
ATOM      2  CA  ARG A   2      26.981  96.080   7.901  0.00  0.00    +0.137 C 
BRANCH   2   4
ATOM      3  C   ALA A   1      24.907  94.854   8.079  0.00  0.00    +0.238 C 
ATOM      4  N   ARG A   2      26.076  95.186   8.610  0.00  0.00    -0.298 N 
ATOM      5  H   ARG A   2      26.348  94.805   9.539  0.00  0.00    +0.150 HD
ATOM      6  O   ALA A   1      24.542  95.279   6.964  0.00  0.00    -0.274 OA
BRANCH   3   7
ATOM      7  CA  ALA A   1      24.027  93.900   8.920  0.00  0.00    +0.145 C 
ATOM      8  CB  ALA A   1      23.410  94.644  10.109  0.00  0.00    +0.028 C 
BRANCH   7   9
ATOM      9  N   ALA A   1      24.804  92.770   9.422  0.00  0.00    -0.238 NA
ATOM     10  H   ALA A   1      24.871  92.626  10.450  0.00  0.00    +0.142 HD
ENDBRANCH   7   9
ENDBRANCH   3   7
ENDBRANCH   2   4
BRANCH   2  11
ATOM     11  C   ARG A   2      27.426  95.525   6.553  0.00  0.00    +0.227 C 
ATOM     12  O   ARG A   2      27.245  96.187   5.530  0.00  0.00    -0.286 OA
ENDBRANCH   2  11
ENDBRANCH   1   2
BRANCH   1  13
ATOM     13  CG  ARG A   2      29.189  97.405   8.178  0.00  0.00    +0.045 C 
BRANCH  13  14
ATOM     14  CD  ARG A   2      30.041  97.973   9.309  0.00  0.00    +0.174 C 
BRANCH  14  15
ATOM     15  NE  ARG A   2      29.173  98.415  10.394  0.00  0.00    -0.265 N 
ATOM     16  CZ  ARG A   2      29.378  98.203  11.689  0.00  0.00    +0.342 C 
ATOM     17  NH2 ARG A   2      28.477  98.627  12.563  0.00  0.00    -0.292 N 
ATOM     18 HH21 ARG A   2      28.624  98.468  13.580  0.00  0.00    +0.255 HD
ATOM     19 HH22 ARG A   2      27.623  99.119  12.232  0.00  0.00    +0.255 HD
ATOM     20  NH1 ARG A   2      30.445  97.547  12.122  0.00  0.00    -0.292 N 
ATOM     21 HH11 ARG A   2      30.583  97.394  13.141  0.00  0.00    +0.255 HD
ATOM     22 HH12 ARG A   2      31.144  97.185  11.442  0.00  0.00    +0.255 HD
ATOM     23  HE  ARG A   2      28.317  98.943  10.130  0.00  0.00    +0.259 HD
ENDBRANCH  14  15
ENDBRANCH  13  14
ENDBRANCH   1  13
TORSDOF 8
REMARK  Name = ../refined-set-2016/5tmp/5tmp_pocket.pdb
REMARK  287 active torsions:
REMARK  status: ('A' for Active; 'I' for Inactive)
REMARK    1  A    between atoms: _1  and  _3
REMARK    2  A    between atoms: _3  and  _4
REMARK    3  A    between atoms: _3  and  _6
REMARK    4  A    between atoms: _6  and  _7
REMARK    5  A    between atoms: _10  and  _12
REMARK    6  A    between atoms: _12  and  _13
REMARK    7  A    between atoms: _12  and  _15
REMARK    8  A    between atoms: _15  and  _16
REMARK    9  A    between atoms: _16  and  _17
REMARK   10  A    between atoms: _20  and  _22
REMARK   11  A    between atoms: _22  and  _23
REMARK   12  A    between atoms: _25  and  _27
REMARK   13  A    between atoms: _27  and  _28
REMARK   14  A    between atoms: _27  and  _30
REMARK   15  A    between atoms: _30  and  _31
REMARK   16  A    between atoms: _34  and  _36
REMARK   17  A    between atoms: _36  and  _37
REMARK   18  A    between atoms: _36  and  _39
REMARK   19  A    between atoms: _39  and  _40
REMARK   20  A    between atoms: _40  and  _41
REMARK   21  A    between atoms: _44  and  _46
REMARK   22  A    between atoms: _46  and  _47
REMARK   23  A    between atoms: _49  and  _51
REMARK   24  A    between atoms: _51  and  _52
REMARK   25  A    between atoms: _55  and  _57
REMARK   26  A    between atoms: _57  and  _58
REMARK   27  A    between atoms: _60  and  _62
REMARK   28  A    between atoms: _62  and  _63
REMARK   29  A    between atoms: _62  and  _65
REMARK   30  A    between atoms: _65  and  _66
REMARK   31  A    between atoms: _66  and  _67
REMARK   32  A    between atoms: _67  and  _68
REMARK   33  A    between atoms: _68  and  _69
REMARK   34  A    between atoms: _73  and  _75
REMARK   35  A    between atoms: _75  and  _76
REMARK   36  A    between atoms: _75  and  _78
REMARK   37  A    between atoms: _78  and  _79
REMARK   38  A    between atoms: _82  and  _84
REMARK   39  A    between atoms: _84  and  _85
REMARK   40  A    between atoms: _84  and  _87
REMARK   41  A    between atoms: _87  and  _88
REMARK   42  A    between atoms: _91  and  _93
REMARK   43  A    between atoms: _93  and  _94
REMARK   44  A    between atoms: _97  and  _99
REMARK   45  A    between atoms: _99  and  _100
REMARK   46  A    between atoms: _99  and  _102
REMARK   47  A    between atoms: _102  and  _103
REMARK   48  A    between atoms: _103  and  _104
REMARK   49  A    between atoms: _104  and  _105
REMARK   50  A    between atoms: _114  and  _116
REMARK   51  A    between atoms: _116  and  _117
REMARK   52  A    between atoms: _116  and  _119
REMARK   53  A    between atoms: _119  and  _120
REMARK   54  A    between atoms: _120  and  _121
REMARK   55  A    between atoms: _121  and  _122
REMARK   56  A    between atoms: _131  and  _133
REMARK   57  A    between atoms: _133  and  _134
REMARK   58  A    between atoms: _133  and  _136
REMARK   59  A    between atoms: _136  and  _137
REMARK   60  A    between atoms: _137  and  _138
REMARK   61  A    between atoms: _142  and  _143
REMARK   62  A    between atoms: _148  and  _150
REMARK   63  A    between atoms: _150  and  _151
REMARK   64  A    between atoms: _153  and  _155
REMARK   65  A    between atoms: _155  and  _156
REMARK   66  A    between atoms: _155  and  _158
REMARK   67  A    between atoms: _158  and  _159
REMARK   68  A    between atoms: _159  and  _160
REMARK   69  A    between atoms: _160  and  _161
REMARK   70  A    between atoms: _170  and  _172
REMARK   71  A    between atoms: _172  and  _173
REMARK   72  A    between atoms: _172  and  _175
REMARK   73  A    between atoms: _175  and  _176
REMARK   74  A    between atoms: _179  and  _181
REMARK   75  A    between atoms: _181  and  _182
REMARK   76  A    between atoms: _181  and  _184
REMARK   77  A    between atoms: _184  and  _185
REMARK   78  A    between atoms: _188  and  _190
REMARK   79  A    between atoms: _190  and  _191
REMARK   80  A    between atoms: _190  and  _193
REMARK   81  A    between atoms: _193  and  _194
REMARK   82  A    between atoms: _194  and  _195
REMARK   83  A    between atoms: _198  and  _200
REMARK   84  A    between atoms: _200  and  _201
REMARK   85  A    between atoms: _200  and  _203
REMARK   86  A    between atoms: _206  and  _208
REMARK   87  A    between atoms: _208  and  _209
REMARK   88  A    between atoms: _208  and  _211
REMARK   89  A    between atoms: _211  and  _212
REMARK   90  A    between atoms: _212  and  _213
REMARK   91  A    between atoms: _215  and  _217
REMARK   92  A    between atoms: _217  and  _218
REMARK   93  A    between atoms: _217  and  _220
REMARK   94  A    between atoms: _220  and  _221
REMARK   95  A    between atoms: _227  and  _229
REMARK   96  A    between atoms: _229  and  _230
REMARK   97  A    between atoms: _229  and  _232
REMARK   98  A    between atoms: _232  and  _233
REMARK   99  A    between atoms: _238  and  _239
REMARK  100  A    between atoms: _241  and  _243
REMARK  101  A    between atoms: _243  and  _244
REMARK  102  A    between atoms: _247  and  _249
REMARK  103  A    between atoms: _249  and  _250
REMARK  104  A    between atoms: _249  and  _252
REMARK  105  A    between atoms: _252  and  _253
REMARK  106  A    between atoms: _253  and  _254
REMARK  107  A    between atoms: _254  and  _255
REMARK  108  A    between atoms: _264  and  _266
REMARK  109  A    between atoms: _266  and  _267
REMARK  110  A    between atoms: _266  and  _269
REMARK  111  A    between atoms: _269  and  _270
REMARK  112  A    between atoms: _273  and  _275
REMARK  113  A    between atoms: _275  and  _276
REMARK  114  A    between atoms: _275  and  _278
REMARK  115  A    between atoms: _278  and  _279
REMARK  116  A    between atoms: _279  and  _280
REMARK  117  A    between atoms: _280  and  _281
REMARK  118  A    between atoms: _290  and  _292
REMARK  119  A    between atoms: _292  and  _293
REMARK  120  A    between atoms: _292  and  _295
REMARK  121  A    between atoms: _295  and  _296
REMARK  122  A    between atoms: _301  and  _303
REMARK  123  A    between atoms: _303  and  _304
REMARK  124  A    between atoms: _303  and  _306
REMARK  125  A    between atoms: _306  and  _307
REMARK  126  A    between atoms: _310  and  _312
REMARK  127  A    between atoms: _312  and  _313
REMARK  128  A    between atoms: _312  and  _315
REMARK  129  A    between atoms: _315  and  _316
REMARK  130  A    between atoms: _319  and  _321
REMARK  131  A    between atoms: _321  and  _322
REMARK  132  A    between atoms: _321  and  _324
REMARK  133  A    between atoms: _324  and  _325
REMARK  134  A    between atoms: _327  and  _329
REMARK  135  A    between atoms: _329  and  _330
REMARK  136  A    between atoms: _329  and  _332
REMARK  137  A    between atoms: _332  and  _333
REMARK  138  A    between atoms: _336  and  _338
REMARK  139  A    between atoms: _338  and  _339
REMARK  140  A    between atoms: _338  and  _341
REMARK  141  A    between atoms: _341  and  _342
REMARK  142  A    between atoms: _342  and  _343
REMARK  143  A    between atoms: _348  and  _350
REMARK  144  A    between atoms: _350  and  _351
REMARK  145  A    between atoms: _354  and  _356
REMARK  146  A    between atoms: _356  and  _357
REMARK  147  A    between atoms: _356  and  _359
REMARK  148  A    between atoms: _359  and  _360
REMARK  149  A    between atoms: _365  and  _366
REMARK  150  A    between atoms: _368  and  _370
REMARK  151  A    between atoms: _370  and  _371
REMARK  152  A    between atoms: _370  and  _373
REMARK  153  A    between atoms: _373  and  _374
REMARK  154  A    between atoms: _374  and  _375
REMARK  155  A    between atoms: _380  and  _382
REMARK  156  A    between atoms: _382  and  _383
REMARK  157  A    between atoms: _385  and  _387
REMARK  158  A    between atoms: _387  and  _388
REMARK  159  A    between atoms: _390  and  _392
REMARK  160  A    between atoms: _392  and  _393
REMARK  161  A    between atoms: _392  and  _395
REMARK  162  A    between atoms: _395  and  _396
REMARK  163  A    between atoms: _396  and  _397
REMARK  164  A    between atoms: _397  and  _398
REMARK  165  A    between atoms: _407  and  _409
REMARK  166  A    between atoms: _409  and  _410
REMARK  167  A    between atoms: _409  and  _412
REMARK  168  A    between atoms: _412  and  _413
REMARK  169  A    between atoms: _416  and  _418
REMARK  170  A    between atoms: _418  and  _419
REMARK  171  A    between atoms: _418  and  _421
REMARK  172  A    between atoms: _424  and  _426
REMARK  173  A    between atoms: _426  and  _427
REMARK  174  A    between atoms: _426  and  _429
REMARK  175  A    between atoms: _432  and  _434
REMARK  176  A    between atoms: _434  and  _435
REMARK  177  A    between atoms: _437  and  _439
REMARK  178  A    between atoms: _439  and  _440
REMARK  179  A    between atoms: _439  and  _442
REMARK  180  A    between atoms: _442  and  _443
REMARK  181  A    between atoms: _446  and  _448
REMARK  182  A    between atoms: _448  and  _449
REMARK  183  A    between atoms: _448  and  _451
REMARK  184  A    between atoms: _451  and  _452
REMARK  185  A    between atoms: _452  and  _453
REMARK  186  A    between atoms: _453  and  _454
REMARK  187  A    between atoms: _454  and  _455
REMARK  188  A    between atoms: _459  and  _461
REMARK  189  A    between atoms: _461  and  _462
REMARK  190  A    between atoms: _461  and  _464
REMARK  191  A    between atoms: _464  and  _465
REMARK  192  A    between atoms: _465  and  _466
REMARK  193  A    between atoms: _466  and  _467
REMARK  194  A    between atoms: _476  and  _478
REMARK  195  A    between atoms: _478  and  _479
REMARK  196  A    between atoms: _482  and  _484
REMARK  197  A    between atoms: _484  and  _485
REMARK  198  A    between atoms: _484  and  _487
REMARK  199  A    between atoms: _487  and  _488
REMARK  200  A    between atoms: _488  and  _489
REMARK  201  A    between atoms: _489  and  _490
REMARK  202  A    between atoms: _499  and  _501
REMARK  203  A    between atoms: _501  and  _502
REMARK  204  A    between atoms: _505  and  _507
REMARK  205  A    between atoms: _507  and  _508
REMARK  206  A    between atoms: _507  and  _510
REMARK  207  A    between atoms: _510  and  _511
REMARK  208  A    between atoms: _511  and  _512
REMARK  209  A    between atoms: _512  and  _513
REMARK  210  A    between atoms: _522  and  _524
REMARK  211  A    between atoms: _524  and  _525
REMARK  212  A    between atoms: _527  and  _529
REMARK  213  A    between atoms: _529  and  _530
REMARK  214  A    between atoms: _529  and  _532
REMARK  215  A    between atoms: _532  and  _533
REMARK  216  A    between atoms: _533  and  _534
REMARK  217  A    between atoms: _537  and  _539
REMARK  218  A    between atoms: _539  and  _540
REMARK  219  A    between atoms: _539  and  _542
REMARK  220  A    between atoms: _542  and  _543
REMARK  221  A    between atoms: _546  and  _548
REMARK  222  A    between atoms: _548  and  _549
REMARK  223  A    between atoms: _548  and  _551
REMARK  224  A    between atoms: _551  and  _552
REMARK  225  A    between atoms: _552  and  _553
REMARK  226  A    between atoms: _553  and  _554
REMARK  227  A    between atoms: _563  and  _565
REMARK  228  A    between atoms: _565  and  _566
REMARK  229  A    between atoms: _565  and  _568
REMARK  230  A    between atoms: _568  and  _569
REMARK  231  A    between atoms: _572  and  _574
REMARK  232  A    between atoms: _574  and  _575
REMARK  233  A    between atoms: _574  and  _577
REMARK  234  A    between atoms: _577  and  _578
REMARK  235  A    between atoms: _578  and  _579
REMARK  236  A    between atoms: _582  and  _584
REMARK  237  A    between atoms: _584  and  _585
REMARK  238  A    between atoms: _584  and  _587
REMARK  239  A    between atoms: _587  and  _588
REMARK  240  A    between atoms: _588  and  _589
REMARK  241  A    between atoms: _594  and  _596
REMARK  242  A    between atoms: _596  and  _597
REMARK  243  A    between atoms: _596  and  _599
REMARK  244  A    between atoms: _599  and  _600
REMARK  245  A    between atoms: _600  and  _601
REMARK  246  A    between atoms: _604  and  _606
REMARK  247  A    between atoms: _606  and  _607
REMARK  248  A    between atoms: _606  and  _609
REMARK  249  A    between atoms: _609  and  _610
REMARK  250  A    between atoms: _616  and  _618
REMARK  251  A    between atoms: _618  and  _619
REMARK  252  A    between atoms: _618  and  _621
REMARK  253  A    between atoms: _621  and  _622
REMARK  254  A    between atoms: _628  and  _630
REMARK  255  A    between atoms: _630  and  _631
REMARK  256  A    between atoms: _630  and  _633
REMARK  257  A    between atoms: _633  and  _634
REMARK  258  A    between atoms: _637  and  _639
REMARK  259  A    between atoms: _639  and  _640
REMARK  260  A    between atoms: _639  and  _642
REMARK  261  A    between atoms: _642  and  _643
REMARK  262  A    between atoms: _648  and  _649
REMARK  263  A    between atoms: _651  and  _653
REMARK  264  A    between atoms: _653  and  _654
REMARK  265  A    between atoms: _657  and  _659
REMARK  266  A    between atoms: _659  and  _660
REMARK  267  A    between atoms: _659  and  _662
REMARK  268  A    between atoms: _662  and  _663
REMARK  269  A    between atoms: _663  and  _664
REMARK  270  A    between atoms: _670  and  _671
REMARK  271  A    between atoms: _676  and  _678
REMARK  272  A    between atoms: _678  and  _679
REMARK  273  A    between atoms: _678  and  _681
REMARK  274  A    between atoms: _681  and  _682
REMARK  275  A    between atoms: _685  and  _687
REMARK  276  A    between atoms: _687  and  _688
REMARK  277  A    between atoms: _687  and  _690
REMARK  278  A    between atoms: _690  and  _691
REMARK  279  A    between atoms: _691  and  _692
REMARK  280  A    between atoms: _695  and  _697
REMARK  281  A    between atoms: _697  and  _698
REMARK  282  A    between atoms: _697  and  _700
REMARK  283  A    between atoms: _703  and  _705
REMARK  284  A    between atoms: _705  and  _706
REMARK  285  A    between atoms: _705  and  _708
REMARK  286  A    between atoms: _708  and  _709
REMARK  287  A    between atoms: _709  and  _710
REMARK                            x       y       z     vdW  Elec       q    Type
REMARK                         _______ _______ _______ _____ _____    ______ ____
ROOT
ATOM      1  CA  SER A   6      29.827 102.580  16.165  0.00  0.00    +0.178 C 
ENDROOT
BRANCH   1   2
ATOM      2  C   SER A   6      30.069 101.253  16.876  0.00  0.00    +0.243 C 
ATOM      3  O   SER A   6      29.897 101.145  18.097  0.00  0.00    -0.273 OA
ATOM      4  N   THR A   7      30.472 100.239  16.108  0.00  0.00    -0.295 N 
ATOM      5  H   THR A   7      30.582 100.384  15.084  0.00  0.00    +0.150 HD
BRANCH   4   6
ATOM      6  CA  THR A   7      30.759  98.934  16.683  0.00  0.00    +0.176 C 
BRANCH   6   7
ATOM      7  C   THR A   7      31.967  99.106  17.609  0.00  0.00    +0.243 C 
ATOM      8  O   THR A   7      31.946  98.703  18.784  0.00  0.00    -0.273 OA
ATOM      9  N   GLN A   8      33.011  99.738  17.080  0.00  0.00    -0.297 N 
ATOM     10  H   GLN A   8      32.962 100.079  16.099  0.00  0.00    +0.150 HD
BRANCH   9  11
ATOM     11  CA  GLN A   8      34.223  99.958  17.859  0.00  0.00    +0.149 C 
BRANCH  11  12
ATOM     12  C   GLN A   8      33.947 100.710  19.149  0.00  0.00    +0.241 C 
ATOM     13  O   GLN A   8      34.450 100.345  20.215  0.00  0.00    -0.273 OA
ATOM     14  N   ALA A   9      33.140 101.763  19.060  0.00  0.00    -0.297 N 
ATOM     15  H   ALA A   9      32.733 102.031  18.141  0.00  0.00    +0.150 HD
BRANCH  14  16
ATOM     16  CA  ALA A   9      32.828 102.539  20.249  0.00  0.00    +0.149 C 
ATOM     17  CB  ALA A   9      32.244 103.867  19.854  0.00  0.00    +0.031 C 
BRANCH  16  18
ATOM     18  C   ALA A   9      31.876 101.809  21.194  0.00  0.00    +0.241 C 
ATOM     19  O   ALA A   9      32.194 101.604  22.369  0.00  0.00    -0.273 OA
ATOM     20  N   TYR A  10      30.717 101.403  20.681  0.00  0.00    -0.297 N 
ATOM     21  H   TYR A  10      30.522 101.562  19.672  0.00  0.00    +0.150 HD
BRANCH  20  22
ATOM     22  CA  TYR A  10      29.707 100.734  21.512  0.00  0.00    +0.153 C 
BRANCH  22  23
ATOM     23  C   TYR A  10      30.061  99.322  22.006  0.00  0.00    +0.241 C 
ATOM     24  O   TYR A  10      29.960  99.021  23.202  0.00  0.00    -0.273 OA
ATOM     25  N   GLN A  11      30.471  98.452  21.091  0.00  0.00    -0.297 N 
ATOM     26  H   GLN A  11      30.540  98.741  20.094  0.00  0.00    +0.150 HD
BRANCH  25  27
ATOM     27  CA  GLN A  11      30.824  97.095  21.479  0.00  0.00    +0.149 C 
BRANCH  27  28
ATOM     28  C   GLN A  11      32.214  97.085  22.081  0.00  0.00    +0.241 C 
ATOM     29  O   GLN A  11      32.498  96.330  23.003  0.00  0.00    -0.273 OA
ATOM     30  N   GLY A  12      33.085  97.938  21.560  0.00  0.00    -0.296 N 
ATOM     31  H   GLY A  12      32.809  98.556  20.770  0.00  0.00    +0.150 HD
BRANCH  30  32
ATOM     32  CA  GLY A  12      34.422  97.999  22.103  0.00  0.00    +0.163 C 
BRANCH  32  33
ATOM     33  C   GLY A  12      34.414  98.733  23.423  0.00  0.00    +0.229 C 
ATOM     34  O   GLY A  12      34.744  98.176  24.463  0.00  0.00    -0.286 OA
ENDBRANCH  32  33
ENDBRANCH  30  32
ENDBRANCH  27  28
BRANCH  27  35
ATOM     35  CB  GLN A  11      30.756  96.171  20.270  0.00  0.00    +0.039 C 
BRANCH  35  36
ATOM     36  CG  GLN A  11      29.334  95.781  19.923  0.00  0.00    +0.087 C 
BRANCH  36  37
ATOM     37  CD  GLN A  11      28.512  96.965  19.446  0.00  0.00    +0.219 C 
ATOM     38  NE2 GLN A  11      27.379  97.213  20.104  0.00  0.00    -0.329 N 
ATOM     39 HE21 GLN A  11      27.097  96.607  20.901  0.00  0.00    +0.145 HD
ATOM     40 HE22 GLN A  11      26.777  98.012  19.820  0.00  0.00    +0.145 HD
ATOM     41  OE1 GLN A  11      28.890  97.650  18.498  0.00  0.00    -0.275 OA
ENDBRANCH  36  37
ENDBRANCH  35  36
ENDBRANCH  27  35
ENDBRANCH  25  27
ENDBRANCH  22  23
BRANCH  22  42
ATOM     42  CB  TYR A  10      28.366 100.699  20.760  0.00  0.00    +0.055 C 
BRANCH  42  43
ATOM     43  CG  TYR A  10      27.594 102.011  20.809  0.00  0.00    -0.020 A 
ATOM     44  CD2 TYR A  10      26.751 102.301  21.868  0.00  0.00    -0.001 A 
ATOM     45  CE2 TYR A  10      26.037 103.496  21.906  0.00  0.00    +0.036 A 
ATOM     46  CZ  TYR A  10      26.161 104.412  20.881  0.00  0.00    +0.134 A 
ATOM     47  CE1 TYR A  10      26.997 104.152  19.810  0.00  0.00    +0.036 A 
ATOM     48  CD1 TYR A  10      27.706 102.957  19.780  0.00  0.00    -0.001 A 
BRANCH  46  49
ATOM     49  OH  TYR A  10      25.431 105.575  20.926  0.00  0.00    -0.506 OA
ATOM     50  HH  TYR A  10      24.893 105.594  21.757  0.00  0.00    +0.292 HD
ENDBRANCH  46  49
ENDBRANCH  42  43
ENDBRANCH  22  42
ENDBRANCH  20  22
ENDBRANCH  16  18
ENDBRANCH  14  16
ENDBRANCH  11  12
BRANCH  11  51
ATOM     51  CB  GLN A   8      35.246 100.726  17.026  0.00  0.00    +0.039 C 
BRANCH  51  52
ATOM     52  CG  GLN A   8      35.872  99.898  15.934  0.00  0.00    +0.087 C 
BRANCH  52  53
ATOM     53  CD  GLN A   8      36.701 100.746  15.009  0.00  0.00    +0.219 C 
ATOM     54  OE1 GLN A   8      37.612 101.466  15.455  0.00  0.00    -0.275 OA
ATOM     55  NE2 GLN A   8      36.397 100.684  13.709  0.00  0.00    -0.329 N 
ATOM     56 HE21 GLN A   8      35.626 100.066  13.384  0.00  0.00    +0.145 HD
ATOM     57 HE22 GLN A   8      36.932 101.253  13.022  0.00  0.00    +0.145 HD
ENDBRANCH  52  53
ENDBRANCH  51  52
ENDBRANCH  11  51
ENDBRANCH   9  11
ENDBRANCH   6   7
BRANCH   6  58
ATOM     58  CB  THR A   7      31.093  97.890  15.586  0.00  0.00    +0.137 C 
ATOM     59  CG2 THR A   7      31.401  96.548  16.222  0.00  0.00    +0.034 C 
BRANCH  58  60
ATOM     60  OG1 THR A   7      29.970  97.733  14.701  0.00  0.00    -0.382 OA
ATOM     61  HG1 THR A   7      29.184  97.424  15.218  0.00  0.00    +0.210 HD
ENDBRANCH  58  60
ENDBRANCH   6  58
ENDBRANCH   4   6
ENDBRANCH   1   2
BRANCH   1  64
ATOM     62  C   LEU A   5      32.152 102.975  15.554  0.00  0.00    +0.241 C 
ATOM     63  O   LEU A   5      32.537 102.845  16.720  0.00  0.00    -0.273 OA
ATOM     64  N   SER A   6      30.880 102.853  15.193  0.00  0.00    -0.295 N 
ATOM     65  H   SER A   6      30.627 102.955  14.189  0.00  0.00    +0.150 HD
BRANCH  62  66
ATOM     66  CA  LEU A   5      33.133 103.257  14.417  0.00  0.00    +0.149 C 
BRANCH  66  69
ATOM     67  C   ASP A   4      32.479 101.296  13.227  0.00  0.00    +0.241 C 
ATOM     68  O   ASP A   4      32.700 100.621  14.244  0.00  0.00    -0.273 OA
ATOM     69  N   LEU A   5      32.651 102.607  13.212  0.00  0.00    -0.297 N 
ATOM     70  H   LEU A   5      32.445 103.160  12.356  0.00  0.00    +0.150 HD
BRANCH  67  71
ATOM     71  CA  ASP A   4      31.989 100.636  11.941  0.00  0.00    +0.160 C 
BRANCH  71  74
ATOM     72  C   HIS A   3      29.941 101.878  11.500  0.00  0.00    +0.241 C 
ATOM     73  O   HIS A   3      29.598 101.826  12.694  0.00  0.00    -0.273 OA
ATOM     74  N   ASP A   4      31.088 101.369  11.054  0.00  0.00    -0.297 N 
ATOM     75  H   ASP A   4      31.348 101.496  10.055  0.00  0.00    +0.150 HD
BRANCH  72  76
ATOM     76  CA  HIS A   3      29.052 102.575  10.466  0.00  0.00    +0.155 C 
BRANCH  76  78
ATOM     77  C   ARG A   2      27.241 104.187  10.645  0.00  0.00    +0.241 C 
ATOM     78  N   HIS A   3      28.299 103.582  11.168  0.00  0.00    -0.297 N 
ATOM     79  H   HIS A   3      28.598 103.847  12.128  0.00  0.00    +0.150 HD
ATOM     80  O   ARG A   2      26.793 103.953   9.513  0.00  0.00    -0.273 OA
BRANCH  77  81
ATOM     81  CA  ARG A   2      26.605 105.210  11.559  0.00  0.00    +0.149 C 
BRANCH  81  83
ATOM     82  C   ASP A   1      24.672 106.132  10.363  0.00  0.00    +0.239 C 
ATOM     83  N   ARG A   2      25.909 106.254  10.814  0.00  0.00    -0.297 N 
ATOM     84  H   ARG A   2      26.414 107.144  10.627  0.00  0.00    +0.150 HD
ATOM     85  O   ASP A   1      23.992 105.127  10.515  0.00  0.00    -0.274 OA
BRANCH  82  86
ATOM     86  CA  ASP A   1      24.134 107.328   9.601  0.00  0.00    +0.156 C 
BRANCH  86  87
ATOM     87  N   ASP A   1      24.382 106.969   8.211  0.00  0.00    -0.238 NA
ATOM     88  H   ASP A   1      23.726 106.319   7.732  0.00  0.00    +0.142 HD
ENDBRANCH  86  87
BRANCH  86  89
ATOM     89  CB  ASP A   1      22.633 107.499   9.891  0.00  0.00    +0.140 C 
BRANCH  89  90
ATOM     90  CG  ASP A   1      22.357 107.950  11.333  0.00  0.00    +0.367 C 
ATOM     91  OD2 ASP A   1      23.113 107.577  12.261  0.00  0.00    -0.246 OA
ATOM     92  OD1 ASP A   1      21.371 108.684  11.551  0.00  0.00    -0.246 OA
ENDBRANCH  89  90
ENDBRANCH  86  89
ENDBRANCH  82  86
ENDBRANCH  81  83
BRANCH  81  93
ATOM     93  CB  ARG A   2      25.671 104.497  12.519  0.00  0.00    +0.033 C 
BRANCH  93  94
ATOM     94  CG  ARG A   2      25.152 105.346  13.622  0.00  0.00    +0.045 C 
BRANCH  94  95
ATOM     95  CD  ARG A   2      24.616 104.427  14.676  0.00  0.00    +0.174 C 
BRANCH  95  96
ATOM     96  NE  ARG A   2      24.020 105.154  15.782  0.00  0.00    -0.265 N 
ATOM     97  CZ  ARG A   2      24.704 105.695  16.778  0.00  0.00    +0.342 C 
ATOM     98  NH2 ARG A   2      24.050 106.300  17.757  0.00  0.00    -0.292 N 
ATOM     99 HH21 ARG A   2      24.575 106.729  18.546  0.00  0.00    +0.255 HD
ATOM    100 HH22 ARG A   2      23.011 106.346  17.738  0.00  0.00    +0.255 HD
ATOM    101  NH1 ARG A   2      26.030 105.598  16.816  0.00  0.00    -0.292 N 
ATOM    102 HH11 ARG A   2      26.560 106.026  17.602  0.00  0.00    +0.255 HD
ATOM    103 HH12 ARG A   2      26.536 105.095  16.060  0.00  0.00    +0.255 HD
ATOM    104  HE  ARG A   2      22.985 105.257  15.793  0.00  0.00    +0.259 HD
ENDBRANCH  95  96
ENDBRANCH  94  95
ENDBRANCH  93  94
ENDBRANCH  81  93
ENDBRANCH  77  81
ENDBRANCH  76  78
BRANCH  76 105
ATOM    105  CB  HIS A   3      29.885 103.221   9.358  0.00  0.00    +0.076 C 
BRANCH 105 106
ATOM    106  CG  HIS A   3      30.511 102.240   8.414  0.00  0.00    +0.082 A 
ATOM    107  CD2 HIS A   3      31.804 101.892   8.217  0.00  0.00    +0.115 A 
ATOM    108  NE2 HIS A   3      31.827 100.957   7.208  0.00  0.00    -0.221 NA
ATOM    109  CE1 HIS A   3      30.590 100.736   6.800  0.00  0.00    +0.199 A 
ATOM    110  ND1 HIS A   3      29.777 101.497   7.511  0.00  0.00    -0.227 NA
ENDBRANCH 105 106
ENDBRANCH  76 105
ENDBRANCH  72  76
ENDBRANCH  71  74
BRANCH  71 111
ATOM    111  CB  ASP A   4      33.190 100.145  11.157  0.00  0.00    +0.143 C 
BRANCH 111 112
ATOM    112  CG  ASP A   4      33.813  98.935  11.793  0.00  0.00    +0.367 C 
ATOM    113  OD2 ASP A   4      34.798  99.096  12.562  0.00  0.00    -0.246 OA
ATOM    114  OD1 ASP A   4      33.303  97.820  11.533  0.00  0.00    -0.246 OA
ENDBRANCH 111 112
ENDBRANCH  71 111
ENDBRANCH  67  71
ENDBRANCH  66  69
BRANCH  66 115
ATOM    115  CB  LEU A   5      33.284 104.762  14.170  0.00  0.00    +0.029 C 
BRANCH 115 116
ATOM    116  CG  LEU A   5      34.096 105.584  15.180  0.00  0.00    +0.002 C 
ATOM    117  CD2 LEU A   5      35.488 105.004  15.366  0.00  0.00    +0.000 C 
ATOM    118  CD1 LEU A   5      34.183 107.014  14.666  0.00  0.00    +0.000 C 
ENDBRANCH 115 116
ENDBRANCH  66 115
ENDBRANCH  62  66
ENDBRANCH   1  64
BRANCH   1 119
ATOM    119  CB  SER A   6      28.478 102.561  15.459  0.00  0.00    +0.166 C 
BRANCH 119 120
ATOM    120  OG  SER A   6      27.884 103.846  15.478  0.00  0.00    -0.380 OA
ATOM    121  H   SER A   6      28.478 104.490  15.016  0.00  0.00    +0.211 HD
ENDBRANCH 119 120
ENDBRANCH   1 119
TORSDOF 49
REMARK  Name = ../refined-set-2016/5tmp/5tmp_pocket.pdb
REMARK  287 active torsions:
REMARK  status: ('A' for Active; 'I' for Inactive)
REMARK    1  A    between atoms: _1  and  _3
REMARK    2  A    between atoms: _3  and  _4
REMARK    3  A    between atoms: _3  and  _6
REMARK    4  A    between atoms: _6  and  _7
REMARK    5  A    between atoms: _10  and  _12
REMARK    6  A    between atoms: _12  and  _13
REMARK    7  A    between atoms: _12  and  _15
REMARK    8  A    between atoms: _15  and  _16
REMARK    9  A    between atoms: _16  and  _17
REMARK   10  A    between atoms: _20  and  _22
REMARK   11  A    between atoms: _22  and  _23
REMARK   12  A    between atoms: _25  and  _27
REMARK   13  A    between atoms: _27  and  _28
REMARK   14  A    between atoms: _27  and  _30
REMARK   15  A    between atoms: _30  and  _31
REMARK   16  A    between atoms: _34  and  _36
REMARK   17  A    between atoms: _36  and  _37
REMARK   18  A    between atoms: _36  and  _39
REMARK   19  A    between atoms: _39  and  _40
REMARK   20  A    between atoms: _40  and  _41
REMARK   21  A    between atoms: _44  and  _46
REMARK   22  A    between atoms: _46  and  _47
REMARK   23  A    between atoms: _49  and  _51
REMARK   24  A    between atoms: _51  and  _52
REMARK   25  A    between atoms: _55  and  _57
REMARK   26  A    between atoms: _57  and  _58
REMARK   27  A    between atoms: _60  and  _62
REMARK   28  A    between atoms: _62  and  _63
REMARK   29  A    between atoms: _62  and  _65
REMARK   30  A    between atoms: _65  and  _66
REMARK   31  A    between atoms: _66  and  _67
REMARK   32  A    between atoms: _67  and  _68
REMARK   33  A    between atoms: _68  and  _69
REMARK   34  A    between atoms: _73  and  _75
REMARK   35  A    between atoms: _75  and  _76
REMARK   36  A    between atoms: _75  and  _78
REMARK   37  A    between atoms: _78  and  _79
REMARK   38  A    between atoms: _82  and  _84
REMARK   39  A    between atoms: _84  and  _85
REMARK   40  A    between atoms: _84  and  _87
REMARK   41  A    between atoms: _87  and  _88
REMARK   42  A    between atoms: _91  and  _93
REMARK   43  A    between atoms: _93  and  _94
REMARK   44  A    between atoms: _97  and  _99
REMARK   45  A    between atoms: _99  and  _100
REMARK   46  A    between atoms: _99  and  _102
REMARK   47  A    between atoms: _102  and  _103
REMARK   48  A    between atoms: _103  and  _104
REMARK   49  A    between atoms: _104  and  _105
REMARK   50  A    between atoms: _114  and  _116
REMARK   51  A    between atoms: _116  and  _117
REMARK   52  A    between atoms: _116  and  _119
REMARK   53  A    between atoms: _119  and  _120
REMARK   54  A    between atoms: _120  and  _121
REMARK   55  A    between atoms: _121  and  _122
REMARK   56  A    between atoms: _131  and  _133
REMARK   57  A    between atoms: _133  and  _134
REMARK   58  A    between atoms: _133  and  _136
REMARK   59  A    between atoms: _136  and  _137
REMARK   60  A    between atoms: _137  and  _138
REMARK   61  A    between atoms: _142  and  _143
REMARK   62  A    between atoms: _148  and  _150
REMARK   63  A    between atoms: _150  and  _151
REMARK   64  A    between atoms: _153  and  _155
REMARK   65  A    between atoms: _155  and  _156
REMARK   66  A    between atoms: _155  and  _158
REMARK   67  A    between atoms: _158  and  _159
REMARK   68  A    between atoms: _159  and  _160
REMARK   69  A    between atoms: _160  and  _161
REMARK   70  A    between atoms: _170  and  _172
REMARK   71  A    between atoms: _172  and  _173
REMARK   72  A    between atoms: _172  and  _175
REMARK   73  A    between atoms: _175  and  _176
REMARK   74  A    between atoms: _179  and  _181
REMARK   75  A    between atoms: _181  and  _182
REMARK   76  A    between atoms: _181  and  _184
REMARK   77  A    between atoms: _184  and  _185
REMARK   78  A    between atoms: _188  and  _190
REMARK   79  A    between atoms: _190  and  _191
REMARK   80  A    between atoms: _190  and  _193
REMARK   81  A    between atoms: _193  and  _194
REMARK   82  A    between atoms: _194  and  _195
REMARK   83  A    between atoms: _198  and  _200
REMARK   84  A    between atoms: _200  and  _201
REMARK   85  A    between atoms: _200  and  _203
REMARK   86  A    between atoms: _206  and  _208
REMARK   87  A    between atoms: _208  and  _209
REMARK   88  A    between atoms: _208  and  _211
REMARK   89  A    between atoms: _211  and  _212
REMARK   90  A    between atoms: _212  and  _213
REMARK   91  A    between atoms: _215  and  _217
REMARK   92  A    between atoms: _217  and  _218
REMARK   93  A    between atoms: _217  and  _220
REMARK   94  A    between atoms: _220  and  _221
REMARK   95  A    between atoms: _227  and  _229
REMARK   96  A    between atoms: _229  and  _230
REMARK   97  A    between atoms: _229  and  _232
REMARK   98  A    between atoms: _232  and  _233
REMARK   99  A    between atoms: _238  and  _239
REMARK  100  A    between atoms: _241  and  _243
REMARK  101  A    between atoms: _243  and  _244
REMARK  102  A    between atoms: _247  and  _249
REMARK  103  A    between atoms: _249  and  _250
REMARK  104  A    between atoms: _249  and  _252
REMARK  105  A    between atoms: _252  and  _253
REMARK  106  A    between atoms: _253  and  _254
REMARK  107  A    between atoms: _254  and  _255
REMARK  108  A    between atoms: _264  and  _266
REMARK  109  A    between atoms: _266  and  _267
REMARK  110  A    between atoms: _266  and  _269
REMARK  111  A    between atoms: _269  and  _270
REMARK  112  A    between atoms: _273  and  _275
REMARK  113  A    between atoms: _275  and  _276
REMARK  114  A    between atoms: _275  and  _278
REMARK  115  A    between atoms: _278  and  _279
REMARK  116  A    between atoms: _279  and  _280
REMARK  117  A    between atoms: _280  and  _281
REMARK  118  A    between atoms: _290  and  _292
REMARK  119  A    between atoms: _292  and  _293
REMARK  120  A    between atoms: _292  and  _295
REMARK  121  A    between atoms: _295  and  _296
REMARK  122  A    between atoms: _301  and  _303
REMARK  123  A    between atoms: _303  and  _304
REMARK  124  A    between atoms: _303  and  _306
REMARK  125  A    between atoms: _306  and  _307
REMARK  126  A    between atoms: _310  and  _312
REMARK  127  A    between atoms: _312  and  _313
REMARK  128  A    between atoms: _312  and  _315
REMARK  129  A    between atoms: _315  and  _316
REMARK  130  A    between atoms: _319  and  _321
REMARK  131  A    between atoms: _321  and  _322
REMARK  132  A    between atoms: _321  and  _324
REMARK  133  A    between atoms: _324  and  _325
REMARK  134  A    between atoms: _327  and  _329
REMARK  135  A    between atoms: _329  and  _330
REMARK  136  A    between atoms: _329  and  _332
REMARK  137  A    between atoms: _332  and  _333
REMARK  138  A    between atoms: _336  and  _338
REMARK  139  A    between atoms: _338  and  _339
REMARK  140  A    between atoms: _338  and  _341
REMARK  141  A    between atoms: _341  and  _342
REMARK  142  A    between atoms: _342  and  _343
REMARK  143  A    between atoms: _348  and  _350
REMARK  144  A    between atoms: _350  and  _351
REMARK  145  A    between atoms: _354  and  _356
REMARK  146  A    between atoms: _356  and  _357
REMARK  147  A    between atoms: _356  and  _359
REMARK  148  A    between atoms: _359  and  _360
REMARK  149  A    between atoms: _365  and  _366
REMARK  150  A    between atoms: _368  and  _370
REMARK  151  A    between atoms: _370  and  _371
REMARK  152  A    between atoms: _370  and  _373
REMARK  153  A    between atoms: _373  and  _374
REMARK  154  A    between atoms: _374  and  _375
REMARK  155  A    between atoms: _380  and  _382
REMARK  156  A    between atoms: _382  and  _383
REMARK  157  A    between atoms: _385  and  _387
REMARK  158  A    between atoms: _387  and  _388
REMARK  159  A    between atoms: _390  and  _392
REMARK  160  A    between atoms: _392  and  _393
REMARK  161  A    between atoms: _392  and  _395
REMARK  162  A    between atoms: _395  and  _396
REMARK  163  A    between atoms: _396  and  _397
REMARK  164  A    between atoms: _397  and  _398
REMARK  165  A    between atoms: _407  and  _409
REMARK  166  A    between atoms: _409  and  _410
REMARK  167  A    between atoms: _409  and  _412
REMARK  168  A    between atoms: _412  and  _413
REMARK  169  A    between atoms: _416  and  _418
REMARK  170  A    between atoms: _418  and  _419
REMARK  171  A    between atoms: _418  and  _421
REMARK  172  A    between atoms: _424  and  _426
REMARK  173  A    between atoms: _426  and  _427
REMARK  174  A    between atoms: _426  and  _429
REMARK  175  A    between atoms: _432  and  _434
REMARK  176  A    between atoms: _434  and  _435
REMARK  177  A    between atoms: _437  and  _439
REMARK  178  A    between atoms: _439  and  _440
REMARK  179  A    between atoms: _439  and  _442
REMARK  180  A    between atoms: _442  and  _443
REMARK  181  A    between atoms: _446  and  _448
REMARK  182  A    between atoms: _448  and  _449
REMARK  183  A    between atoms: _448  and  _451
REMARK  184  A    between atoms: _451  and  _452
REMARK  185  A    between atoms: _452  and  _453
REMARK  186  A    between atoms: _453  and  _454
REMARK  187  A    between atoms: _454  and  _455
REMARK  188  A    between atoms: _459  and  _461
REMARK  189  A    between atoms: _461  and  _462
REMARK  190  A    between atoms: _461  and  _464
REMARK  191  A    between atoms: _464  and  _465
REMARK  192  A    between atoms: _465  and  _466
REMARK  193  A    between atoms: _466  and  _467
REMARK  194  A    between atoms: _476  and  _478
REMARK  195  A    between atoms: _478  and  _479
REMARK  196  A    between atoms: _482  and  _484
REMARK  197  A    between atoms: _484  and  _485
REMARK  198  A    between atoms: _484  and  _487
REMARK  199  A    between atoms: _487  and  _488
REMARK  200  A    between atoms: _488  and  _489
REMARK  201  A    between atoms: _489  and  _490
REMARK  202  A    between atoms: _499  and  _501
REMARK  203  A    between atoms: _501  and  _502
REMARK  204  A    between atoms: _505  and  _507
REMARK  205  A    between atoms: _507  and  _508
REMARK  206  A    between atoms: _507  and  _510
REMARK  207  A    between atoms: _510  and  _511
REMARK  208  A    between atoms: _511  and  _512
REMARK  209  A    between atoms: _512  and  _513
REMARK  210  A    between atoms: _522  and  _524
REMARK  211  A    between atoms: _524  and  _525
REMARK  212  A    between atoms: _527  and  _529
REMARK  213  A    between atoms: _529  and  _530
REMARK  214  A    between atoms: _529  and  _532
REMARK  215  A    between atoms: _532  and  _533
REMARK  216  A    between atoms: _533  and  _534
REMARK  217  A    between atoms: _537  and  _539
REMARK  218  A    between atoms: _539  and  _540
REMARK  219  A    between atoms: _539  and  _542
REMARK  220  A    between atoms: _542  and  _543
REMARK  221  A    between atoms: _546  and  _548
REMARK  222  A    between atoms: _548  and  _549
REMARK  223  A    between atoms: _548  and  _551
REMARK  224  A    between atoms: _551  and  _552
REMARK  225  A    between atoms: _552  and  _553
REMARK  226  A    between atoms: _553  and  _554
REMARK  227  A    between atoms: _563  and  _565
REMARK  228  A    between atoms: _565  and  _566
REMARK  229  A    between atoms: _565  and  _568
REMARK  230  A    between atoms: _568  and  _569
REMARK  231  A    between atoms: _572  and  _574
REMARK  232  A    between atoms: _574  and  _575
REMARK  233  A    between atoms: _574  and  _577
REMARK  234  A    between atoms: _577  and  _578
REMARK  235  A    between atoms: _578  and  _579
REMARK  236  A    between atoms: _582  and  _584
REMARK  237  A    between atoms: _584  and  _585
REMARK  238  A    between atoms: _584  and  _587
REMARK  239  A    between atoms: _587  and  _588
REMARK  240  A    between atoms: _588  and  _589
REMARK  241  A    between atoms: _594  and  _596
REMARK  242  A    between atoms: _596  and  _597
REMARK  243  A    between atoms: _596  and  _599
REMARK  244  A    between atoms: _599  and  _600
REMARK  245  A    between atoms: _600  and  _601
REMARK  246  A    between atoms: _604  and  _606
REMARK  247  A    between atoms: _606  and  _607
REMARK  248  A    between atoms: _606  and  _609
REMARK  249  A    between atoms: _609  and  _610
REMARK  250  A    between atoms: _616  and  _618
REMARK  251  A    between atoms: _618  and  _619
REMARK  252  A    between atoms: _618  and  _621
REMARK  253  A    between atoms: _621  and  _622
REMARK  254  A    between atoms: _628  and  _630
REMARK  255  A    between atoms: _630  and  _631
REMARK  256  A    between atoms: _630  and  _633
REMARK  257  A    between atoms: _633  and  _634
REMARK  258  A    between atoms: _637  and  _639
REMARK  259  A    between atoms: _639  and  _640
REMARK  260  A    between atoms: _639  and  _642
REMARK  261  A    between atoms: _642  and  _643
REMARK  262  A    between atoms: _648  and  _649
REMARK  263  A    between atoms: _651  and  _653
REMARK  264  A    between atoms: _653  and  _654
REMARK  265  A    between atoms: _657  and  _659
REMARK  266  A    between atoms: _659  and  _660
REMARK  267  A    between atoms: _659  and  _662
REMARK  268  A    between atoms: _662  and  _663
REMARK  269  A    between atoms: _663  and  _664
REMARK  270  A    between atoms: _670  and  _671
REMARK  271  A    between atoms: _676  and  _678
REMARK  272  A    between atoms: _678  and  _679
REMARK  273  A    between atoms: _678  and  _681
REMARK  274  A    between atoms: _681  and  _682
REMARK  275  A    between atoms: _685  and  _687
REMARK  276  A    between atoms: _687  and  _688
REMARK  277  A    between atoms: _687  and  _690
REMARK  278  A    between atoms: _690  and  _691
REMARK  279  A    between atoms: _691  and  _692
REMARK  280  A    between atoms: _695  and  _697
REMARK  281  A    between atoms: _697  and  _698
REMARK  282  A    between atoms: _697  and  _700
REMARK  283  A    between atoms: _703  and  _705
REMARK  284  A    between atoms: _705  and  _706
REMARK  285  A    between atoms: _705  and  _708
REMARK  286  A    between atoms: _708  and  _709
REMARK  287  A    between atoms: _709  and  _710
REMARK                            x       y       z     vdW  Elec       q    Type
REMARK                         _______ _______ _______ _____ _____    ______ ____
ROOT
ATOM      1  CB  ARG A   2      30.352  95.621  24.580  0.00  0.00    +0.031 C 
ENDROOT
BRANCH   1   2
ATOM      2  CA  ARG A   2      30.590  96.387  25.883  0.00  0.00    +0.137 C 
BRANCH   2   5
ATOM      3  C   GLY A   1      30.596  98.780  26.527  0.00  0.00    +0.240 C 
ATOM      4  O   GLY A   1      30.650  98.572  27.743  0.00  0.00    -0.274 OA
ATOM      5  N   ARG A   2      30.583  97.820  25.602  0.00  0.00    -0.298 N 
ATOM      6  H   ARG A   2      30.567  98.114  24.605  0.00  0.00    +0.150 HD
BRANCH   3   7
ATOM      7  CA  GLY A   1      30.555 100.192  25.981  0.00  0.00    +0.169 C 
BRANCH   7   8
ATOM      8  N   GLY A   1      31.659 100.468  25.086  0.00  0.00    -0.236 NA
ATOM      9  H   GLY A   1      31.485 100.670  24.081  0.00  0.00    +0.142 HD
ENDBRANCH   7   8
ENDBRANCH   3   7
ENDBRANCH   2   5
BRANCH   2  10
ATOM     10  C   ARG A   2      31.881  95.878  26.520  0.00  0.00    +0.227 C 
ATOM     11  O   ARG A   2      31.848  95.156  27.516  0.00  0.00    -0.286 OA
ENDBRANCH   2  10
ENDBRANCH   1   2
BRANCH   1  12
ATOM     12  CG  ARG A   2      28.996  94.955  24.447  0.00  0.00    +0.045 C 
BRANCH  12  13
ATOM     13  CD  ARG A   2      27.942  95.638  25.277  0.00  0.00    +0.174 C 
BRANCH  13  14
ATOM     14  NE  ARG A   2      26.665  95.650  24.573  0.00  0.00    -0.265 N 
ATOM     15  CZ  ARG A   2      25.500  95.921  25.151  0.00  0.00    +0.342 C 
ATOM     16  NH2 ARG A   2      25.459  96.201  26.447  0.00  0.00    -0.292 N 
ATOM     17 HH21 ARG A   2      26.336  96.208  27.006  0.00  0.00    +0.255 HD
ATOM     18 HH22 ARG A   2      24.550  96.414  26.904  0.00  0.00    +0.255 HD
ATOM     19  NH1 ARG A   2      24.378  95.923  24.435  0.00  0.00    -0.292 N 
ATOM     20 HH11 ARG A   2      23.469  96.136  24.893  0.00  0.00    +0.255 HD
ATOM     21 HH12 ARG A   2      24.410  95.712  23.417  0.00  0.00    +0.255 HD
ATOM     22  HE  ARG A   2      26.666  95.433  23.556  0.00  0.00    +0.259 HD
ENDBRANCH  13  14
ENDBRANCH  12  13
ENDBRANCH   1  12
TORSDOF 8
REMARK  Name = ../refined-set-2016/5tmp/5tmp_pocket.pdb
REMARK  287 active torsions:
REMARK  status: ('A' for Active; 'I' for Inactive)
REMARK    1  A    between atoms: _1  and  _3
REMARK    2  A    between atoms: _3  and  _4
REMARK    3  A    between atoms: _3  and  _6
REMARK    4  A    between atoms: _6  and  _7
REMARK    5  A    between atoms: _10  and  _12
REMARK    6  A    between atoms: _12  and  _13
REMARK    7  A    between atoms: _12  and  _15
REMARK    8  A    between atoms: _15  and  _16
REMARK    9  A    between atoms: _16  and  _17
REMARK   10  A    between atoms: _20  and  _22
REMARK   11  A    between atoms: _22  and  _23
REMARK   12  A    between atoms: _25  and  _27
REMARK   13  A    between atoms: _27  and  _28
REMARK   14  A    between atoms: _27  and  _30
REMARK   15  A    between atoms: _30  and  _31
REMARK   16  A    between atoms: _34  and  _36
REMARK   17  A    between atoms: _36  and  _37
REMARK   18  A    between atoms: _36  and  _39
REMARK   19  A    between atoms: _39  and  _40
REMARK   20  A    between atoms: _40  and  _41
REMARK   21  A    between atoms: _44  and  _46
REMARK   22  A    between atoms: _46  and  _47
REMARK   23  A    between atoms: _49  and  _51
REMARK   24  A    between atoms: _51  and  _52
REMARK   25  A    between atoms: _55  and  _57
REMARK   26  A    between atoms: _57  and  _58
REMARK   27  A    between atoms: _60  and  _62
REMARK   28  A    between atoms: _62  and  _63
REMARK   29  A    between atoms: _62  and  _65
REMARK   30  A    between atoms: _65  and  _66
REMARK   31  A    between atoms: _66  and  _67
REMARK   32  A    between atoms: _67  and  _68
REMARK   33  A    between atoms: _68  and  _69
REMARK   34  A    between atoms: _73  and  _75
REMARK   35  A    between atoms: _75  and  _76
REMARK   36  A    between atoms: _75  and  _78
REMARK   37  A    between atoms: _78  and  _79
REMARK   38  A    between atoms: _82  and  _84
REMARK   39  A    between atoms: _84  and  _85
REMARK   40  A    between atoms: _84  and  _87
REMARK   41  A    between atoms: _87  and  _88
REMARK   42  A    between atoms: _91  and  _93
REMARK   43  A    between atoms: _93  and  _94
REMARK   44  A    between atoms: _97  and  _99
REMARK   45  A    between atoms: _99  and  _100
REMARK   46  A    between atoms: _99  and  _102
REMARK   47  A    between atoms: _102  and  _103
REMARK   48  A    between atoms: _103  and  _104
REMARK   49  A    between atoms: _104  and  _105
REMARK   50  A    between atoms: _114  and  _116
REMARK   51  A    between atoms: _116  and  _117
REMARK   52  A    between atoms: _116  and  _119
REMARK   53  A    between atoms: _119  and  _120
REMARK   54  A    between atoms: _120  and  _121
REMARK   55  A    between atoms: _121  and  _122
REMARK   56  A    between atoms: _131  and  _133
REMARK   57  A    between atoms: _133  and  _134
REMARK   58  A    between atoms: _133  and  _136
REMARK   59  A    between atoms: _136  and  _137
REMARK   60  A    between atoms: _137  and  _138
REMARK   61  A    between atoms: _142  and  _143
REMARK   62  A    between atoms: _148  and  _150
REMARK   63  A    between atoms: _150  and  _151
REMARK   64  A    between atoms: _153  and  _155
REMARK   65  A    between atoms: _155  and  _156
REMARK   66  A    between atoms: _155  and  _158
REMARK   67  A    between atoms: _158  and  _159
REMARK   68  A    between atoms: _159  and  _160
REMARK   69  A    between atoms: _160  and  _161
REMARK   70  A    between atoms: _170  and  _172
REMARK   71  A    between atoms: _172  and  _173
REMARK   72  A    between atoms: _172  and  _175
REMARK   73  A    between atoms: _175  and  _176
REMARK   74  A    between atoms: _179  and  _181
REMARK   75  A    between atoms: _181  and  _182
REMARK   76  A    between atoms: _181  and  _184
REMARK   77  A    between atoms: _184  and  _185
REMARK   78  A    between atoms: _188  and  _190
REMARK   79  A    between atoms: _190  and  _191
REMARK   80  A    between atoms: _190  and  _193
REMARK   81  A    between atoms: _193  and  _194
REMARK   82  A    between atoms: _194  and  _195
REMARK   83  A    between atoms: _198  and  _200
REMARK   84  A    between atoms: _200  and  _201
REMARK   85  A    between atoms: _200  and  _203
REMARK   86  A    between atoms: _206  and  _208
REMARK   87  A    between atoms: _208  and  _209
REMARK   88  A    between atoms: _208  and  _211
REMARK   89  A    between atoms: _211  and  _212
REMARK   90  A    between atoms: _212  and  _213
REMARK   91  A    between atoms: _215  and  _217
REMARK   92  A    between atoms: _217  and  _218
REMARK   93  A    between atoms: _217  and  _220
REMARK   94  A    between atoms: _220  and  _221
REMARK   95  A    between atoms: _227  and  _229
REMARK   96  A    between atoms: _229  and  _230
REMARK   97  A    between atoms: _229  and  _232
REMARK   98  A    between atoms: _232  and  _233
REMARK   99  A    between atoms: _238  and  _239
REMARK  100  A    between atoms: _241  and  _243
REMARK  101  A    between atoms: _243  and  _244
REMARK  102  A    between atoms: _247  and  _249
REMARK  103  A    between atoms: _249  and  _250
REMARK  104  A    between atoms: _249  and  _252
REMARK  105  A    between atoms: _252  and  _253
REMARK  106  A    between atoms: _253  and  _254
REMARK  107  A    between atoms: _254  and  _255
REMARK  108  A    between atoms: _264  and  _266
REMARK  109  A    between atoms: _266  and  _267
REMARK  110  A    between atoms: _266  and  _269
REMARK  111  A    between atoms: _269  and  _270
REMARK  112  A    between atoms: _273  and  _275
REMARK  113  A    between atoms: _275  and  _276
REMARK  114  A    between atoms: _275  and  _278
REMARK  115  A    between atoms: _278  and  _279
REMARK  116  A    between atoms: _279  and  _280
REMARK  117  A    between atoms: _280  and  _281
REMARK  118  A    between atoms: _290  and  _292
REMARK  119  A    between atoms: _292  and  _293
REMARK  120  A    between atoms: _292  and  _295
REMARK  121  A    between atoms: _295  and  _296
REMARK  122  A    between atoms: _301  and  _303
REMARK  123  A    between atoms: _303  and  _304
REMARK  124  A    between atoms: _303  and  _306
REMARK  125  A    between atoms: _306  and  _307
REMARK  126  A    between atoms: _310  and  _312
REMARK  127  A    between atoms: _312  and  _313
REMARK  128  A    between atoms: _312  and  _315
REMARK  129  A    between atoms: _315  and  _316
REMARK  130  A    between atoms: _319  and  _321
REMARK  131  A    between atoms: _321  and  _322
REMARK  132  A    between atoms: _321  and  _324
REMARK  133  A    between atoms: _324  and  _325
REMARK  134  A    between atoms: _327  and  _329
REMARK  135  A    between atoms: _329  and  _330
REMARK  136  A    between atoms: _329  and  _332
REMARK  137  A    between atoms: _332  and  _333
REMARK  138  A    between atoms: _336  and  _338
REMARK  139  A    between atoms: _338  and  _339
REMARK  140  A    between atoms: _338  and  _341
REMARK  141  A    between atoms: _341  and  _342
REMARK  142  A    between atoms: _342  and  _343
REMARK  143  A    between atoms: _348  and  _350
REMARK  144  A    between atoms: _350  and  _351
REMARK  145  A    between atoms: _354  and  _356
REMARK  146  A    between atoms: _356  and  _357
REMARK  147  A    between atoms: _356  and  _359
REMARK  148  A    between atoms: _359  and  _360
REMARK  149  A    between atoms: _365  and  _366
REMARK  150  A    between atoms: _368  and  _370
REMARK  151  A    between atoms: _370  and  _371
REMARK  152  A    between atoms: _370  and  _373
REMARK  153  A    between atoms: _373  and  _374
REMARK  154  A    between atoms: _374  and  _375
REMARK  155  A    between atoms: _380  and  _382
REMARK  156  A    between atoms: _382  and  _383
REMARK  157  A    between atoms: _385  and  _387
REMARK  158  A    between atoms: _387  and  _388
REMARK  159  A    between atoms: _390  and  _392
REMARK  160  A    between atoms: _392  and  _393
REMARK  161  A    between atoms: _392  and  _395
REMARK  162  A    between atoms: _395  and  _396
REMARK  163  A    between atoms: _396  and  _397
REMARK  164  A    between atoms: _397  and  _398
REMARK  165  A    between atoms: _407  and  _409
REMARK  166  A    between atoms: _409  and  _410
REMARK  167  A    between atoms: _409  and  _412
REMARK  168  A    between atoms: _412  and  _413
REMARK  169  A    between atoms: _416  and  _418
REMARK  170  A    between atoms: _418  and  _419
REMARK  171  A    between atoms: _418  and  _421
REMARK  172  A    between atoms: _424  and  _426
REMARK  173  A    between atoms: _426  and  _427
REMARK  174  A    between atoms: _426  and  _429
REMARK  175  A    between atoms: _432  and  _434
REMARK  176  A    between atoms: _434  and  _435
REMARK  177  A    between atoms: _437  and  _439
REMARK  178  A    between atoms: _439  and  _440
REMARK  179  A    between atoms: _439  and  _442
REMARK  180  A    between atoms: _442  and  _443
REMARK  181  A    between atoms: _446  and  _448
REMARK  182  A    between atoms: _448  and  _449
REMARK  183  A    between atoms: _448  and  _451
REMARK  184  A    between atoms: _451  and  _452
REMARK  185  A    between atoms: _452  and  _453
REMARK  186  A    between atoms: _453  and  _454
REMARK  187  A    between atoms: _454  and  _455
REMARK  188  A    between atoms: _459  and  _461
REMARK  189  A    between atoms: _461  and  _462
REMARK  190  A    between atoms: _461  and  _464
REMARK  191  A    between atoms: _464  and  _465
REMARK  192  A    between atoms: _465  and  _466
REMARK  193  A    between atoms: _466  and  _467
REMARK  194  A    between atoms: _476  and  _478
REMARK  195  A    between atoms: _478  and  _479
REMARK  196  A    between atoms: _482  and  _484
REMARK  197  A    between atoms: _484  and  _485
REMARK  198  A    between atoms: _484  and  _487
REMARK  199  A    between atoms: _487  and  _488
REMARK  200  A    between atoms: _488  and  _489
REMARK  201  A    between atoms: _489  and  _490
REMARK  202  A    between atoms: _499  and  _501
REMARK  203  A    between atoms: _501  and  _502
REMARK  204  A    between atoms: _505  and  _507
REMARK  205  A    between atoms: _507  and  _508
REMARK  206  A    between atoms: _507  and  _510
REMARK  207  A    between atoms: _510  and  _511
REMARK  208  A    between atoms: _511  and  _512
REMARK  209  A    between atoms: _512  and  _513
REMARK  210  A    between atoms: _522  and  _524
REMARK  211  A    between atoms: _524  and  _525
REMARK  212  A    between atoms: _527  and  _529
REMARK  213  A    between atoms: _529  and  _530
REMARK  214  A    between atoms: _529  and  _532
REMARK  215  A    between atoms: _532  and  _533
REMARK  216  A    between atoms: _533  and  _534
REMARK  217  A    between atoms: _537  and  _539
REMARK  218  A    between atoms: _539  and  _540
REMARK  219  A    between atoms: _539  and  _542
REMARK  220  A    between atoms: _542  and  _543
REMARK  221  A    between atoms: _546  and  _548
REMARK  222  A    between atoms: _548  and  _549
REMARK  223  A    between atoms: _548  and  _551
REMARK  224  A    between atoms: _551  and  _552
REMARK  225  A    between atoms: _552  and  _553
REMARK  226  A    between atoms: _553  and  _554
REMARK  227  A    between atoms: _563  and  _565
REMARK  228  A    between atoms: _565  and  _566
REMARK  229  A    between atoms: _565  and  _568
REMARK  230  A    between atoms: _568  and  _569
REMARK  231  A    between atoms: _572  and  _574
REMARK  232  A    between atoms: _574  and  _575
REMARK  233  A    between atoms: _574  and  _577
REMARK  234  A    between atoms: _577  and  _578
REMARK  235  A    between atoms: _578  and  _579
REMARK  236  A    between atoms: _582  and  _584
REMARK  237  A    between atoms: _584  and  _585
REMARK  238  A    between atoms: _584  and  _587
REMARK  239  A    between atoms: _587  and  _588
REMARK  240  A    between atoms: _588  and  _589
REMARK  241  A    between atoms: _594  and  _596
REMARK  242  A    between atoms: _596  and  _597
REMARK  243  A    between atoms: _596  and  _599
REMARK  244  A    between atoms: _599  and  _600
REMARK  245  A    between atoms: _600  and  _601
REMARK  246  A    between atoms: _604  and  _606
REMARK  247  A    between atoms: _606  and  _607
REMARK  248  A    between atoms: _606  and  _609
REMARK  249  A    between atoms: _609  and  _610
REMARK  250  A    between atoms: _616  and  _618
REMARK  251  A    between atoms: _618  and  _619
REMARK  252  A    between atoms: _618  and  _621
REMARK  253  A    between atoms: _621  and  _622
REMARK  254  A    between atoms: _628  and  _630
REMARK  255  A    between atoms: _630  and  _631
REMARK  256  A    between atoms: _630  and  _633
REMARK  257  A    between atoms: _633  and  _634
REMARK  258  A    between atoms: _637  and  _639
REMARK  259  A    between atoms: _639  and  _640
REMARK  260  A    between atoms: _639  and  _642
REMARK  261  A    between atoms: _642  and  _643
REMARK  262  A    between atoms: _648  and  _649
REMARK  263  A    between atoms: _651  and  _653
REMARK  264  A    between atoms: _653  and  _654
REMARK  265  A    between atoms: _657  and  _659
REMARK  266  A    between atoms: _659  and  _660
REMARK  267  A    between atoms: _659  and  _662
REMARK  268  A    between atoms: _662  and  _663
REMARK  269  A    between atoms: _663  and  _664
REMARK  270  A    between atoms: _670  and  _671
REMARK  271  A    between atoms: _676  and  _678
REMARK  272  A    between atoms: _678  and  _679
REMARK  273  A    between atoms: _678  and  _681
REMARK  274  A    between atoms: _681  and  _682
REMARK  275  A    between atoms: _685  and  _687
REMARK  276  A    between atoms: _687  and  _688
REMARK  277  A    between atoms: _687  and  _690
REMARK  278  A    between atoms: _690  and  _691
REMARK  279  A    between atoms: _691  and  _692
REMARK  280  A    between atoms: _695  and  _697
REMARK  281  A    between atoms: _697  and  _698
REMARK  282  A    between atoms: _697  and  _700
REMARK  283  A    between atoms: _703  and  _705
REMARK  284  A    between atoms: _705  and  _706
REMARK  285  A    between atoms: _705  and  _708
REMARK  286  A    between atoms: _708  and  _709
REMARK  287  A    between atoms: _709  and  _710
REMARK                            x       y       z     vdW  Elec       q    Type
REMARK                         _______ _______ _______ _____ _____    ______ ____
ROOT
ATOM      1  CA  LEU A   1      29.466 114.444  16.930  0.00  0.00    +0.133 C 
ENDROOT
BRANCH   1   2
ATOM      2  N   LEU A   1      30.002 113.360  16.125  0.00  0.00    -0.239 NA
ATOM      3  H   LEU A   1      29.373 112.614  15.766  0.00  0.00    +0.142 HD
ENDBRANCH   1   2
BRANCH   1   4
ATOM      4  C   LEU A   1      29.554 114.101  18.402  0.00  0.00    +0.224 C 
ATOM      5  O   LEU A   1      28.807 113.255  18.899  0.00  0.00    -0.287 OA
ENDBRANCH   1   4
BRANCH   1   6
ATOM      6  CB  LEU A   1      28.026 114.730  16.549  0.00  0.00    +0.025 C 
BRANCH   6   7
ATOM      7  CG  LEU A   1      27.784 114.752  15.043  0.00  0.00    +0.002 C 
ATOM      8  CD2 LEU A   1      26.316 115.042  14.778  0.00  0.00    +0.000 C 
ATOM      9  CD1 LEU A   1      28.658 115.782  14.377  0.00  0.00    +0.000 C 
ENDBRANCH   6   7
ENDBRANCH   1   6
TORSDOF 4
REMARK  Name = ../refined-set-2016/5tmp/5tmp_pocket.pdb
REMARK  287 active torsions:
REMARK  status: ('A' for Active; 'I' for Inactive)
REMARK    1  A    between atoms: _1  and  _3
REMARK    2  A    between atoms: _3  and  _4
REMARK    3  A    between atoms: _3  and  _6
REMARK    4  A    between atoms: _6  and  _7
REMARK    5  A    between atoms: _10  and  _12
REMARK    6  A    between atoms: _12  and  _13
REMARK    7  A    between atoms: _12  and  _15
REMARK    8  A    between atoms: _15  and  _16
REMARK    9  A    between atoms: _16  and  _17
REMARK   10  A    between atoms: _20  and  _22
REMARK   11  A    between atoms: _22  and  _23
REMARK   12  A    between atoms: _25  and  _27
REMARK   13  A    between atoms: _27  and  _28
REMARK   14  A    between atoms: _27  and  _30
REMARK   15  A    between atoms: _30  and  _31
REMARK   16  A    between atoms: _34  and  _36
REMARK   17  A    between atoms: _36  and  _37
REMARK   18  A    between atoms: _36  and  _39
REMARK   19  A    between atoms: _39  and  _40
REMARK   20  A    between atoms: _40  and  _41
REMARK   21  A    between atoms: _44  and  _46
REMARK   22  A    between atoms: _46  and  _47
REMARK   23  A    between atoms: _49  and  _51
REMARK   24  A    between atoms: _51  and  _52
REMARK   25  A    between atoms: _55  and  _57
REMARK   26  A    between atoms: _57  and  _58
REMARK   27  A    between atoms: _60  and  _62
REMARK   28  A    between atoms: _62  and  _63
REMARK   29  A    between atoms: _62  and  _65
REMARK   30  A    between atoms: _65  and  _66
REMARK   31  A    between atoms: _66  and  _67
REMARK   32  A    between atoms: _67  and  _68
REMARK   33  A    between atoms: _68  and  _69
REMARK   34  A    between atoms: _73  and  _75
REMARK   35  A    between atoms: _75  and  _76
REMARK   36  A    between atoms: _75  and  _78
REMARK   37  A    between atoms: _78  and  _79
REMARK   38  A    between atoms: _82  and  _84
REMARK   39  A    between atoms: _84  and  _85
REMARK   40  A    between atoms: _84  and  _87
REMARK   41  A    between atoms: _87  and  _88
REMARK   42  A    between atoms: _91  and  _93
REMARK   43  A    between atoms: _93  and  _94
REMARK   44  A    between atoms: _97  and  _99
REMARK   45  A    between atoms: _99  and  _100
REMARK   46  A    between atoms: _99  and  _102
REMARK   47  A    between atoms: _102  and  _103
REMARK   48  A    between atoms: _103  and  _104
REMARK   49  A    between atoms: _104  and  _105
REMARK   50  A    between atoms: _114  and  _116
REMARK   51  A    between atoms: _116  and  _117
REMARK   52  A    between atoms: _116  and  _119
REMARK   53  A    between atoms: _119  and  _120
REMARK   54  A    between atoms: _120  and  _121
REMARK   55  A    between atoms: _121  and  _122
REMARK   56  A    between atoms: _131  and  _133
REMARK   57  A    between atoms: _133  and  _134
REMARK   58  A    between atoms: _133  and  _136
REMARK   59  A    between atoms: _136  and  _137
REMARK   60  A    between atoms: _137  and  _138
REMARK   61  A    between atoms: _142  and  _143
REMARK   62  A    between atoms: _148  and  _150
REMARK   63  A    between atoms: _150  and  _151
REMARK   64  A    between atoms: _153  and  _155
REMARK   65  A    between atoms: _155  and  _156
REMARK   66  A    between atoms: _155  and  _158
REMARK   67  A    between atoms: _158  and  _159
REMARK   68  A    between atoms: _159  and  _160
REMARK   69  A    between atoms: _160  and  _161
REMARK   70  A    between atoms: _170  and  _172
REMARK   71  A    between atoms: _172  and  _173
REMARK   72  A    between atoms: _172  and  _175
REMARK   73  A    between atoms: _175  and  _176
REMARK   74  A    between atoms: _179  and  _181
REMARK   75  A    between atoms: _181  and  _182
REMARK   76  A    between atoms: _181  and  _184
REMARK   77  A    between atoms: _184  and  _185
REMARK   78  A    between atoms: _188  and  _190
REMARK   79  A    between atoms: _190  and  _191
REMARK   80  A    between atoms: _190  and  _193
REMARK   81  A    between atoms: _193  and  _194
REMARK   82  A    between atoms: _194  and  _195
REMARK   83  A    between atoms: _198  and  _200
REMARK   84  A    between atoms: _200  and  _201
REMARK   85  A    between atoms: _200  and  _203
REMARK   86  A    between atoms: _206  and  _208
REMARK   87  A    between atoms: _208  and  _209
REMARK   88  A    between atoms: _208  and  _211
REMARK   89  A    between atoms: _211  and  _212
REMARK   90  A    between atoms: _212  and  _213
REMARK   91  A    between atoms: _215  and  _217
REMARK   92  A    between atoms: _217  and  _218
REMARK   93  A    between atoms: _217  and  _220
REMARK   94  A    between atoms: _220  and  _221
REMARK   95  A    between atoms: _227  and  _229
REMARK   96  A    between atoms: _229  and  _230
REMARK   97  A    between atoms: _229  and  _232
REMARK   98  A    between atoms: _232  and  _233
REMARK   99  A    between atoms: _238  and  _239
REMARK  100  A    between atoms: _241  and  _243
REMARK  101  A    between atoms: _243  and  _244
REMARK  102  A    between atoms: _247  and  _249
REMARK  103  A    between atoms: _249  and  _250
REMARK  104  A    between atoms: _249  and  _252
REMARK  105  A    between atoms: _252  and  _253
REMARK  106  A    between atoms: _253  and  _254
REMARK  107  A    between atoms: _254  and  _255
REMARK  108  A    between atoms: _264  and  _266
REMARK  109  A    between atoms: _266  and  _267
REMARK  110  A    between atoms: _266  and  _269
REMARK  111  A    between atoms: _269  and  _270
REMARK  112  A    between atoms: _273  and  _275
REMARK  113  A    between atoms: _275  and  _276
REMARK  114  A    between atoms: _275  and  _278
REMARK  115  A    between atoms: _278  and  _279
REMARK  116  A    between atoms: _279  and  _280
REMARK  117  A    between atoms: _280  and  _281
REMARK  118  A    between atoms: _290  and  _292
REMARK  119  A    between atoms: _292  and  _293
REMARK  120  A    between atoms: _292  and  _295
REMARK  121  A    between atoms: _295  and  _296
REMARK  122  A    between atoms: _301  and  _303
REMARK  123  A    between atoms: _303  and  _304
REMARK  124  A    between atoms: _303  and  _306
REMARK  125  A    between atoms: _306  and  _307
REMARK  126  A    between atoms: _310  and  _312
REMARK  127  A    between atoms: _312  and  _313
REMARK  128  A    between atoms: _312  and  _315
REMARK  129  A    between atoms: _315  and  _316
REMARK  130  A    between atoms: _319  and  _321
REMARK  131  A    between atoms: _321  and  _322
REMARK  132  A    between atoms: _321  and  _324
REMARK  133  A    between atoms: _324  and  _325
REMARK  134  A    between atoms: _327  and  _329
REMARK  135  A    between atoms: _329  and  _330
REMARK  136  A    between atoms: _329  and  _332
REMARK  137  A    between atoms: _332  and  _333
REMARK  138  A    between atoms: _336  and  _338
REMARK  139  A    between atoms: _338  and  _339
REMARK  140  A    between atoms: _338  and  _341
REMARK  141  A    between atoms: _341  and  _342
REMARK  142  A    between atoms: _342  and  _343
REMARK  143  A    between atoms: _348  and  _350
REMARK  144  A    between atoms: _350  and  _351
REMARK  145  A    between atoms: _354  and  _356
REMARK  146  A    between atoms: _356  and  _357
REMARK  147  A    between atoms: _356  and  _359
REMARK  148  A    between atoms: _359  and  _360
REMARK  149  A    between atoms: _365  and  _366
REMARK  150  A    between atoms: _368  and  _370
REMARK  151  A    between atoms: _370  and  _371
REMARK  152  A    between atoms: _370  and  _373
REMARK  153  A    between atoms: _373  and  _374
REMARK  154  A    between atoms: _374  and  _375
REMARK  155  A    between atoms: _380  and  _382
REMARK  156  A    between atoms: _382  and  _383
REMARK  157  A    between atoms: _385  and  _387
REMARK  158  A    between atoms: _387  and  _388
REMARK  159  A    between atoms: _390  and  _392
REMARK  160  A    between atoms: _392  and  _393
REMARK  161  A    between atoms: _392  and  _395
REMARK  162  A    between atoms: _395  and  _396
REMARK  163  A    between atoms: _396  and  _397
REMARK  164  A    between atoms: _397  and  _398
REMARK  165  A    between atoms: _407  and  _409
REMARK  166  A    between atoms: _409  and  _410
REMARK  167  A    between atoms: _409  and  _412
REMARK  168  A    between atoms: _412  and  _413
REMARK  169  A    between atoms: _416  and  _418
REMARK  170  A    between atoms: _418  and  _419
REMARK  171  A    between atoms: _418  and  _421
REMARK  172  A    between atoms: _424  and  _426
REMARK  173  A    between atoms: _426  and  _427
REMARK  174  A    between atoms: _426  and  _429
REMARK  175  A    between atoms: _432  and  _434
REMARK  176  A    between atoms: _434  and  _435
REMARK  177  A    between atoms: _437  and  _439
REMARK  178  A    between atoms: _439  and  _440
REMARK  179  A    between atoms: _439  and  _442
REMARK  180  A    between atoms: _442  and  _443
REMARK  181  A    between atoms: _446  and  _448
REMARK  182  A    between atoms: _448  and  _449
REMARK  183  A    between atoms: _448  and  _451
REMARK  184  A    between atoms: _451  and  _452
REMARK  185  A    between atoms: _452  and  _453
REMARK  186  A    between atoms: _453  and  _454
REMARK  187  A    between atoms: _454  and  _455
REMARK  188  A    between atoms: _459  and  _461
REMARK  189  A    between atoms: _461  and  _462
REMARK  190  A    between atoms: _461  and  _464
REMARK  191  A    between atoms: _464  and  _465
REMARK  192  A    between atoms: _465  and  _466
REMARK  193  A    between atoms: _466  and  _467
REMARK  194  A    between atoms: _476  and  _478
REMARK  195  A    between atoms: _478  and  _479
REMARK  196  A    between atoms: _482  and  _484
REMARK  197  A    between atoms: _484  and  _485
REMARK  198  A    between atoms: _484  and  _487
REMARK  199  A    between atoms: _487  and  _488
REMARK  200  A    between atoms: _488  and  _489
REMARK  201  A    between atoms: _489  and  _490
REMARK  202  A    between atoms: _499  and  _501
REMARK  203  A    between atoms: _501  and  _502
REMARK  204  A    between atoms: _505  and  _507
REMARK  205  A    between atoms: _507  and  _508
REMARK  206  A    between atoms: _507  and  _510
REMARK  207  A    between atoms: _510  and  _511
REMARK  208  A    between atoms: _511  and  _512
REMARK  209  A    between atoms: _512  and  _513
REMARK  210  A    between atoms: _522  and  _524
REMARK  211  A    between atoms: _524  and  _525
REMARK  212  A    between atoms: _527  and  _529
REMARK  213  A    between atoms: _529  and  _530
REMARK  214  A    between atoms: _529  and  _532
REMARK  215  A    between atoms: _532  and  _533
REMARK  216  A    between atoms: _533  and  _534
REMARK  217  A    between atoms: _537  and  _539
REMARK  218  A    between atoms: _539  and  _540
REMARK  219  A    between atoms: _539  and  _542
REMARK  220  A    between atoms: _542  and  _543
REMARK  221  A    between atoms: _546  and  _548
REMARK  222  A    between atoms: _548  and  _549
REMARK  223  A    between atoms: _548  and  _551
REMARK  224  A    between atoms: _551  and  _552
REMARK  225  A    between atoms: _552  and  _553
REMARK  226  A    between atoms: _553  and  _554
REMARK  227  A    between atoms: _563  and  _565
REMARK  228  A    between atoms: _565  and  _566
REMARK  229  A    between atoms: _565  and  _568
REMARK  230  A    between atoms: _568  and  _569
REMARK  231  A    between atoms: _572  and  _574
REMARK  232  A    between atoms: _574  and  _575
REMARK  233  A    between atoms: _574  and  _577
REMARK  234  A    between atoms: _577  and  _578
REMARK  235  A    between atoms: _578  and  _579
REMARK  236  A    between atoms: _582  and  _584
REMARK  237  A    between atoms: _584  and  _585
REMARK  238  A    between atoms: _584  and  _587
REMARK  239  A    between atoms: _587  and  _588
REMARK  240  A    between atoms: _588  and  _589
REMARK  241  A    between atoms: _594  and  _596
REMARK  242  A    between atoms: _596  and  _597
REMARK  243  A    between atoms: _596  and  _599
REMARK  244  A    between atoms: _599  and  _600
REMARK  245  A    between atoms: _600  and  _601
REMARK  246  A    between atoms: _604  and  _606
REMARK  247  A    between atoms: _606  and  _607
REMARK  248  A    between atoms: _606  and  _609
REMARK  249  A    between atoms: _609  and  _610
REMARK  250  A    between atoms: _616  and  _618
REMARK  251  A    between atoms: _618  and  _619
REMARK  252  A    between atoms: _618  and  _621
REMARK  253  A    between atoms: _621  and  _622
REMARK  254  A    between atoms: _628  and  _630
REMARK  255  A    between atoms: _630  and  _631
REMARK  256  A    between atoms: _630  and  _633
REMARK  257  A    between atoms: _633  and  _634
REMARK  258  A    between atoms: _637  and  _639
REMARK  259  A    between atoms: _639  and  _640
REMARK  260  A    between atoms: _639  and  _642
REMARK  261  A    between atoms: _642  and  _643
REMARK  262  A    between atoms: _648  and  _649
REMARK  263  A    between atoms: _651  and  _653
REMARK  264  A    between atoms: _653  and  _654
REMARK  265  A    between atoms: _657  and  _659
REMARK  266  A    between atoms: _659  and  _660
REMARK  267  A    between atoms: _659  and  _662
REMARK  268  A    between atoms: _662  and  _663
REMARK  269  A    between atoms: _663  and  _664
REMARK  270  A    between atoms: _670  and  _671
REMARK  271  A    between atoms: _676  and  _678
REMARK  272  A    between atoms: _678  and  _679
REMARK  273  A    between atoms: _678  and  _681
REMARK  274  A    between atoms: _681  and  _682
REMARK  275  A    between atoms: _685  and  _687
REMARK  276  A    between atoms: _687  and  _688
REMARK  277  A    between atoms: _687  and  _690
REMARK  278  A    between atoms: _690  and  _691
REMARK  279  A    between atoms: _691  and  _692
REMARK  280  A    between atoms: _695  and  _697
REMARK  281  A    between atoms: _697  and  _698
REMARK  282  A    between atoms: _697  and  _700
REMARK  283  A    between atoms: _703  and  _705
REMARK  284  A    between atoms: _705  and  _706
REMARK  285  A    between atoms: _705  and  _708
REMARK  286  A    between atoms: _708  and  _709
REMARK  287  A    between atoms: _709  and  _710
REMARK                            x       y       z     vdW  Elec       q    Type
REMARK                         _______ _______ _______ _____ _____    ______ ____
ROOT
ATOM      1  CA  VAL A   1      28.053 115.176  23.138  0.00  0.00    +0.133 C 
ENDROOT
BRANCH   1   2
ATOM      2  CB  VAL A   1      26.569 115.092  22.608  0.00  0.00    +0.023 C 
ATOM      3  CG2 VAL A   1      25.659 115.893  23.519  0.00  0.00    +0.002 C 
ATOM      4  CG1 VAL A   1      26.077 113.621  22.504  0.00  0.00    +0.002 C 
ENDBRANCH   1   2
BRANCH   1   5
ATOM      5  N   VAL A   1      28.974 114.565  22.208  0.00  0.00    -0.239 NA
ATOM      6  H   VAL A   1      29.032 113.528  22.155  0.00  0.00    +0.142 HD
ENDBRANCH   1   5
BRANCH   1   7
ATOM      7  C   VAL A   1      28.241 114.412  24.434  0.00  0.00    +0.224 C 
ATOM      8  O   VAL A   1      28.766 113.296  24.419  0.00  0.00    -0.287 OA
ENDBRANCH   1   7
TORSDOF 3
REMARK  Name = ../refined-set-2016/5tmp/5tmp_pocket.pdb
REMARK  287 active torsions:
REMARK  status: ('A' for Active; 'I' for Inactive)
REMARK    1  A    between atoms: _1  and  _3
REMARK    2  A    between atoms: _3  and  _4
REMARK    3  A    between atoms: _3  and  _6
REMARK    4  A    between atoms: _6  and  _7
REMARK    5  A    between atoms: _10  and  _12
REMARK    6  A    between atoms: _12  and  _13
REMARK    7  A    between atoms: _12  and  _15
REMARK    8  A    between atoms: _15  and  _16
REMARK    9  A    between atoms: _16  and  _17
REMARK   10  A    between atoms: _20  and  _22
REMARK   11  A    between atoms: _22  and  _23
REMARK   12  A    between atoms: _25  and  _27
REMARK   13  A    between atoms: _27  and  _28
REMARK   14  A    between atoms: _27  and  _30
REMARK   15  A    between atoms: _30  and  _31
REMARK   16  A    between atoms: _34  and  _36
REMARK   17  A    between atoms: _36  and  _37
REMARK   18  A    between atoms: _36  and  _39
REMARK   19  A    between atoms: _39  and  _40
REMARK   20  A    between atoms: _40  and  _41
REMARK   21  A    between atoms: _44  and  _46
REMARK   22  A    between atoms: _46  and  _47
REMARK   23  A    between atoms: _49  and  _51
REMARK   24  A    between atoms: _51  and  _52
REMARK   25  A    between atoms: _55  and  _57
REMARK   26  A    between atoms: _57  and  _58
REMARK   27  A    between atoms: _60  and  _62
REMARK   28  A    between atoms: _62  and  _63
REMARK   29  A    between atoms: _62  and  _65
REMARK   30  A    between atoms: _65  and  _66
REMARK   31  A    between atoms: _66  and  _67
REMARK   32  A    between atoms: _67  and  _68
REMARK   33  A    between atoms: _68  and  _69
REMARK   34  A    between atoms: _73  and  _75
REMARK   35  A    between atoms: _75  and  _76
REMARK   36  A    between atoms: _75  and  _78
REMARK   37  A    between atoms: _78  and  _79
REMARK   38  A    between atoms: _82  and  _84
REMARK   39  A    between atoms: _84  and  _85
REMARK   40  A    between atoms: _84  and  _87
REMARK   41  A    between atoms: _87  and  _88
REMARK   42  A    between atoms: _91  and  _93
REMARK   43  A    between atoms: _93  and  _94
REMARK   44  A    between atoms: _97  and  _99
REMARK   45  A    between atoms: _99  and  _100
REMARK   46  A    between atoms: _99  and  _102
REMARK   47  A    between atoms: _102  and  _103
REMARK   48  A    between atoms: _103  and  _104
REMARK   49  A    between atoms: _104  and  _105
REMARK   50  A    between atoms: _114  and  _116
REMARK   51  A    between atoms: _116  and  _117
REMARK   52  A    between atoms: _116  and  _119
REMARK   53  A    between atoms: _119  and  _120
REMARK   54  A    between atoms: _120  and  _121
REMARK   55  A    between atoms: _121  and  _122
REMARK   56  A    between atoms: _131  and  _133
REMARK   57  A    between atoms: _133  and  _134
REMARK   58  A    between atoms: _133  and  _136
REMARK   59  A    between atoms: _136  and  _137
REMARK   60  A    between atoms: _137  and  _138
REMARK   61  A    between atoms: _142  and  _143
REMARK   62  A    between atoms: _148  and  _150
REMARK   63  A    between atoms: _150  and  _151
REMARK   64  A    between atoms: _153  and  _155
REMARK   65  A    between atoms: _155  and  _156
REMARK   66  A    between atoms: _155  and  _158
REMARK   67  A    between atoms: _158  and  _159
REMARK   68  A    between atoms: _159  and  _160
REMARK   69  A    between atoms: _160  and  _161
REMARK   70  A    between atoms: _170  and  _172
REMARK   71  A    between atoms: _172  and  _173
REMARK   72  A    between atoms: _172  and  _175
REMARK   73  A    between atoms: _175  and  _176
REMARK   74  A    between atoms: _179  and  _181
REMARK   75  A    between atoms: _181  and  _182
REMARK   76  A    between atoms: _181  and  _184
REMARK   77  A    between atoms: _184  and  _185
REMARK   78  A    between atoms: _188  and  _190
REMARK   79  A    between atoms: _190  and  _191
REMARK   80  A    between atoms: _190  and  _193
REMARK   81  A    between atoms: _193  and  _194
REMARK   82  A    between atoms: _194  and  _195
REMARK   83  A    between atoms: _198  and  _200
REMARK   84  A    between atoms: _200  and  _201
REMARK   85  A    between atoms: _200  and  _203
REMARK   86  A    between atoms: _206  and  _208
REMARK   87  A    between atoms: _208  and  _209
REMARK   88  A    between atoms: _208  and  _211
REMARK   89  A    between atoms: _211  and  _212
REMARK   90  A    between atoms: _212  and  _213
REMARK   91  A    between atoms: _215  and  _217
REMARK   92  A    between atoms: _217  and  _218
REMARK   93  A    between atoms: _217  and  _220
REMARK   94  A    between atoms: _220  and  _221
REMARK   95  A    between atoms: _227  and  _229
REMARK   96  A    between atoms: _229  and  _230
REMARK   97  A    between atoms: _229  and  _232
REMARK   98  A    between atoms: _232  and  _233
REMARK   99  A    between atoms: _238  and  _239
REMARK  100  A    between atoms: _241  and  _243
REMARK  101  A    between atoms: _243  and  _244
REMARK  102  A    between atoms: _247  and  _249
REMARK  103  A    between atoms: _249  and  _250
REMARK  104  A    between atoms: _249  and  _252
REMARK  105  A    between atoms: _252  and  _253
REMARK  106  A    between atoms: _253  and  _254
REMARK  107  A    between atoms: _254  and  _255
REMARK  108  A    between atoms: _264  and  _266
REMARK  109  A    between atoms: _266  and  _267
REMARK  110  A    between atoms: _266  and  _269
REMARK  111  A    between atoms: _269  and  _270
REMARK  112  A    between atoms: _273  and  _275
REMARK  113  A    between atoms: _275  and  _276
REMARK  114  A    between atoms: _275  and  _278
REMARK  115  A    between atoms: _278  and  _279
REMARK  116  A    between atoms: _279  and  _280
REMARK  117  A    between atoms: _280  and  _281
REMARK  118  A    between atoms: _290  and  _292
REMARK  119  A    between atoms: _292  and  _293
REMARK  120  A    between atoms: _292  and  _295
REMARK  121  A    between atoms: _295  and  _296
REMARK  122  A    between atoms: _301  and  _303
REMARK  123  A    between atoms: _303  and  _304
REMARK  124  A    between atoms: _303  and  _306
REMARK  125  A    between atoms: _306  and  _307
REMARK  126  A    between atoms: _310  and  _312
REMARK  127  A    between atoms: _312  and  _313
REMARK  128  A    between atoms: _312  and  _315
REMARK  129  A    between atoms: _315  and  _316
REMARK  130  A    between atoms: _319  and  _321
REMARK  131  A    between atoms: _321  and  _322
REMARK  132  A    between atoms: _321  and  _324
REMARK  133  A    between atoms: _324  and  _325
REMARK  134  A    between atoms: _327  and  _329
REMARK  135  A    between atoms: _329  and  _330
REMARK  136  A    between atoms: _329  and  _332
REMARK  137  A    between atoms: _332  and  _333
REMARK  138  A    between atoms: _336  and  _338
REMARK  139  A    between atoms: _338  and  _339
REMARK  140  A    between atoms: _338  and  _341
REMARK  141  A    between atoms: _341  and  _342
REMARK  142  A    between atoms: _342  and  _343
REMARK  143  A    between atoms: _348  and  _350
REMARK  144  A    between atoms: _350  and  _351
REMARK  145  A    between atoms: _354  and  _356
REMARK  146  A    between atoms: _356  and  _357
REMARK  147  A    between atoms: _356  and  _359
REMARK  148  A    between atoms: _359  and  _360
REMARK  149  A    between atoms: _365  and  _366
REMARK  150  A    between atoms: _368  and  _370
REMARK  151  A    between atoms: _370  and  _371
REMARK  152  A    between atoms: _370  and  _373
REMARK  153  A    between atoms: _373  and  _374
REMARK  154  A    between atoms: _374  and  _375
REMARK  155  A    between atoms: _380  and  _382
REMARK  156  A    between atoms: _382  and  _383
REMARK  157  A    between atoms: _385  and  _387
REMARK  158  A    between atoms: _387  and  _388
REMARK  159  A    between atoms: _390  and  _392
REMARK  160  A    between atoms: _392  and  _393
REMARK  161  A    between atoms: _392  and  _395
REMARK  162  A    between atoms: _395  and  _396
REMARK  163  A    between atoms: _396  and  _397
REMARK  164  A    between atoms: _397  and  _398
REMARK  165  A    between atoms: _407  and  _409
REMARK  166  A    between atoms: _409  and  _410
REMARK  167  A    between atoms: _409  and  _412
REMARK  168  A    between atoms: _412  and  _413
REMARK  169  A    between atoms: _416  and  _418
REMARK  170  A    between atoms: _418  and  _419
REMARK  171  A    between atoms: _418  and  _421
REMARK  172  A    between atoms: _424  and  _426
REMARK  173  A    between atoms: _426  and  _427
REMARK  174  A    between atoms: _426  and  _429
REMARK  175  A    between atoms: _432  and  _434
REMARK  176  A    between atoms: _434  and  _435
REMARK  177  A    between atoms: _437  and  _439
REMARK  178  A    between atoms: _439  and  _440
REMARK  179  A    between atoms: _439  and  _442
REMARK  180  A    between atoms: _442  and  _443
REMARK  181  A    between atoms: _446  and  _448
REMARK  182  A    between atoms: _448  and  _449
REMARK  183  A    between atoms: _448  and  _451
REMARK  184  A    between atoms: _451  and  _452
REMARK  185  A    between atoms: _452  and  _453
REMARK  186  A    between atoms: _453  and  _454
REMARK  187  A    between atoms: _454  and  _455
REMARK  188  A    between atoms: _459  and  _461
REMARK  189  A    between atoms: _461  and  _462
REMARK  190  A    between atoms: _461  and  _464
REMARK  191  A    between atoms: _464  and  _465
REMARK  192  A    between atoms: _465  and  _466
REMARK  193  A    between atoms: _466  and  _467
REMARK  194  A    between atoms: _476  and  _478
REMARK  195  A    between atoms: _478  and  _479
REMARK  196  A    between atoms: _482  and  _484
REMARK  197  A    between atoms: _484  and  _485
REMARK  198  A    between atoms: _484  and  _487
REMARK  199  A    between atoms: _487  and  _488
REMARK  200  A    between atoms: _488  and  _489
REMARK  201  A    between atoms: _489  and  _490
REMARK  202  A    between atoms: _499  and  _501
REMARK  203  A    between atoms: _501  and  _502
REMARK  204  A    between atoms: _505  and  _507
REMARK  205  A    between atoms: _507  and  _508
REMARK  206  A    between atoms: _507  and  _510
REMARK  207  A    between atoms: _510  and  _511
REMARK  208  A    between atoms: _511  and  _512
REMARK  209  A    between atoms: _512  and  _513
REMARK  210  A    between atoms: _522  and  _524
REMARK  211  A    between atoms: _524  and  _525
REMARK  212  A    between atoms: _527  and  _529
REMARK  213  A    between atoms: _529  and  _530
REMARK  214  A    between atoms: _529  and  _532
REMARK  215  A    between atoms: _532  and  _533
REMARK  216  A    between atoms: _533  and  _534
REMARK  217  A    between atoms: _537  and  _539
REMARK  218  A    between atoms: _539  and  _540
REMARK  219  A    between atoms: _539  and  _542
REMARK  220  A    between atoms: _542  and  _543
REMARK  221  A    between atoms: _546  and  _548
REMARK  222  A    between atoms: _548  and  _549
REMARK  223  A    between atoms: _548  and  _551
REMARK  224  A    between atoms: _551  and  _552
REMARK  225  A    between atoms: _552  and  _553
REMARK  226  A    between atoms: _553  and  _554
REMARK  227  A    between atoms: _563  and  _565
REMARK  228  A    between atoms: _565  and  _566
REMARK  229  A    between atoms: _565  and  _568
REMARK  230  A    between atoms: _568  and  _569
REMARK  231  A    between atoms: _572  and  _574
REMARK  232  A    between atoms: _574  and  _575
REMARK  233  A    between atoms: _574  and  _577
REMARK  234  A    between atoms: _577  and  _578
REMARK  235  A    between atoms: _578  and  _579
REMARK  236  A    between atoms: _582  and  _584
REMARK  237  A    between atoms: _584  and  _585
REMARK  238  A    between atoms: _584  and  _587
REMARK  239  A    between atoms: _587  and  _588
REMARK  240  A    between atoms: _588  and  _589
REMARK  241  A    between atoms: _594  and  _596
REMARK  242  A    between atoms: _596  and  _597
REMARK  243  A    between atoms: _596  and  _599
REMARK  244  A    between atoms: _599  and  _600
REMARK  245  A    between atoms: _600  and  _601
REMARK  246  A    between atoms: _604  and  _606
REMARK  247  A    between atoms: _606  and  _607
REMARK  248  A    between atoms: _606  and  _609
REMARK  249  A    between atoms: _609  and  _610
REMARK  250  A    between atoms: _616  and  _618
REMARK  251  A    between atoms: _618  and  _619
REMARK  252  A    between atoms: _618  and  _621
REMARK  253  A    between atoms: _621  and  _622
REMARK  254  A    between atoms: _628  and  _630
REMARK  255  A    between atoms: _630  and  _631
REMARK  256  A    between atoms: _630  and  _633
REMARK  257  A    between atoms: _633  and  _634
REMARK  258  A    between atoms: _637  and  _639
REMARK  259  A    between atoms: _639  and  _640
REMARK  260  A    between atoms: _639  and  _642
REMARK  261  A    between atoms: _642  and  _643
REMARK  262  A    between atoms: _648  and  _649
REMARK  263  A    between atoms: _651  and  _653
REMARK  264  A    between atoms: _653  and  _654
REMARK  265  A    between atoms: _657  and  _659
REMARK  266  A    between atoms: _659  and  _660
REMARK  267  A    between atoms: _659  and  _662
REMARK  268  A    between atoms: _662  and  _663
REMARK  269  A    between atoms: _663  and  _664
REMARK  270  A    between atoms: _670  and  _671
REMARK  271  A    between atoms: _676  and  _678
REMARK  272  A    between atoms: _678  and  _679
REMARK  273  A    between atoms: _678  and  _681
REMARK  274  A    between atoms: _681  and  _682
REMARK  275  A    between atoms: _685  and  _687
REMARK  276  A    between atoms: _687  and  _688
REMARK  277  A    between atoms: _687  and  _690
REMARK  278  A    between atoms: _690  and  _691
REMARK  279  A    between atoms: _691  and  _692
REMARK  280  A    between atoms: _695  and  _697
REMARK  281  A    between atoms: _697  and  _698
REMARK  282  A    between atoms: _697  and  _700
REMARK  283  A    between atoms: _703  and  _705
REMARK  284  A    between atoms: _705  and  _706
REMARK  285  A    between atoms: _705  and  _708
REMARK  286  A    between atoms: _708  and  _709
REMARK  287  A    between atoms: _709  and  _710
REMARK                            x       y       z     vdW  Elec       q    Type
REMARK                         _______ _______ _______ _____ _____    ______ ____
ROOT
ATOM      1  C   ALA A   6      15.520 109.884  24.432  0.00  0.00    +0.241 C 
ATOM      2  N   ARG A   7      15.567 110.139  25.740  0.00  0.00    -0.297 N 
ATOM      3  H   ARG A   7      16.444 110.525  26.146  0.00  0.00    +0.150 HD
ATOM      4  O   ALA A   6      14.527 109.421  23.871  0.00  0.00    -0.273 OA
ENDROOT
BRANCH   1   5
ATOM      5  CA  ALA A   6      16.793 110.193  23.630  0.00  0.00    +0.149 C 
ATOM      6  CB  ALA A   6      17.812 109.062  23.819  0.00  0.00    +0.031 C 
BRANCH   5   8
ATOM      7  C   ARG A   5      16.671 112.616  23.906  0.00  0.00    +0.241 C 
ATOM      8  N   ALA A   6      17.371 111.486  24.030  0.00  0.00    -0.297 N 
ATOM      9  H   ALA A   6      18.337 111.520  24.414  0.00  0.00    +0.150 HD
ATOM     10  O   ARG A   5      15.516 112.638  23.455  0.00  0.00    -0.273 OA
BRANCH   7  11
ATOM     11  CA  ARG A   5      17.343 113.907  24.366  0.00  0.00    +0.149 C 
BRANCH  11  14
ATOM     12  C   LYS A   4      17.257 113.449  26.724  0.00  0.00    +0.241 C 
ATOM     13  O   LYS A   4      16.035 113.359  26.678  0.00  0.00    -0.273 OA
ATOM     14  N   ARG A   5      17.988 113.717  25.650  0.00  0.00    -0.297 N 
ATOM     15  H   ARG A   5      19.022 113.791  25.729  0.00  0.00    +0.150 HD
BRANCH  12  16
ATOM     16  CA  LYS A   4      18.000 113.245  28.042  0.00  0.00    +0.149 C 
BRANCH  16  18
ATOM     17  C   LEU A   3      18.951 111.158  27.306  0.00  0.00    +0.241 C 
ATOM     18  N   LYS A   4      19.137 112.362  27.829  0.00  0.00    -0.297 N 
ATOM     19  H   LYS A   4      20.095 112.675  28.087  0.00  0.00    +0.150 HD
ATOM     20  O   LEU A   3      17.828 110.744  26.994  0.00  0.00    -0.273 OA
BRANCH  17  21
ATOM     21  CA  LEU A   3      20.205 110.300  27.094  0.00  0.00    +0.149 C 
BRANCH  21  23
ATOM     22  C   GLY A   2      21.181 111.562  25.266  0.00  0.00    +0.243 C 
ATOM     23  N   LEU A   3      21.258 111.109  26.513  0.00  0.00    -0.297 N 
ATOM     24  H   LEU A   3      22.094 111.341  27.086  0.00  0.00    +0.150 HD
ATOM     25  O   GLY A   2      20.230 111.326  24.517  0.00  0.00    -0.273 OA
BRANCH  22  26
ATOM     26  CA  GLY A   2      22.355 112.399  24.796  0.00  0.00    +0.176 C 
BRANCH  26  28
ATOM     27  C   VAL A   1      22.152 114.449  26.050  0.00  0.00    +0.238 C 
ATOM     28  N   GLY A   2      22.814 113.319  25.823  0.00  0.00    -0.296 N 
ATOM     29  H   GLY A   2      23.662 113.093  26.381  0.00  0.00    +0.150 HD
ATOM     30  O   VAL A   1      21.154 114.771  25.416  0.00  0.00    -0.274 OA
BRANCH  27  31
ATOM     31  CA  VAL A   1      22.698 115.367  27.133  0.00  0.00    +0.145 C 
BRANCH  31  32
ATOM     32  CB  VAL A   1      23.608 116.406  26.429  0.00  0.00    +0.025 C 
ATOM     33  CG2 VAL A   1      23.971 117.535  27.392  0.00  0.00    +0.002 C 
ATOM     34  CG1 VAL A   1      22.904 116.954  25.192  0.00  0.00    +0.002 C 
ENDBRANCH  31  32
BRANCH  31  35
ATOM     35  N   VAL A   1      23.415 114.621  28.164  0.00  0.00    -0.238 NA
ATOM     36  H   VAL A   1      24.442 114.755  28.263  0.00  0.00    +0.142 HD
ENDBRANCH  31  35
ENDBRANCH  27  31
ENDBRANCH  26  28
ENDBRANCH  22  26
ENDBRANCH  21  23
BRANCH  21  37
ATOM     37  CB  LEU A   3      20.680 109.708  28.420  0.00  0.00    +0.029 C 
BRANCH  37  38
ATOM     38  CG  LEU A   3      19.717 108.762  29.140  0.00  0.00    +0.002 C 
ATOM     39  CD2 LEU A   3      20.416 108.188  30.365  0.00  0.00    +0.000 C 
ATOM     40  CD1 LEU A   3      19.254 107.645  28.196  0.00  0.00    +0.000 C 
ENDBRANCH  37  38
ENDBRANCH  21  37
ENDBRANCH  17  21
ENDBRANCH  16  18
BRANCH  16  41
ATOM     41  CB  LYS A   4      18.462 114.590  28.597  0.00  0.00    +0.029 C 
BRANCH  41  42
ATOM     42  CG  LYS A   4      17.847 115.791  27.898  0.00  0.00    +0.000 C 
BRANCH  42  43
ATOM     43  CD  LYS A   4      18.067 117.064  28.705  0.00  0.00    -0.024 C 
BRANCH  43  44
ATOM     44  CE  LYS A   4      16.932 118.062  28.498  0.00  0.00    -0.086 C 
BRANCH  44  45
ATOM     45  NZ  LYS A   4      16.178 118.304  29.766  0.00  0.00    +0.380 N 
ATOM     46  HZ1 LYS A   4      16.825 118.685  30.485  0.00  0.00    -0.089 HD
ATOM     47  HZ2 LYS A   4      15.772 117.408  30.103  0.00  0.00    -0.089 HD
ATOM     48  HZ3 LYS A   4      15.414 118.987  29.589  0.00  0.00    -0.089 HD
ENDBRANCH  44  45
ENDBRANCH  43  44
ENDBRANCH  42  43
ENDBRANCH  41  42
ENDBRANCH  16  41
ENDBRANCH  12  16
ENDBRANCH  11  14
BRANCH  11  49
ATOM     49  CB  ARG A   5      18.353 114.396  23.336  0.00  0.00    +0.033 C 
BRANCH  49  50
ATOM     50  CG  ARG A   5      18.866 115.795  23.649  0.00  0.00    +0.045 C 
BRANCH  50  51
ATOM     51  CD  ARG A   5      20.150 116.107  22.896  0.00  0.00    +0.174 C 
BRANCH  51  52
ATOM     52  NE  ARG A   5      20.622 117.472  23.147  0.00  0.00    -0.265 N 
ATOM     53  HE  ARG A   5      20.168 118.005  23.916  0.00  0.00    +0.259 HD
ATOM     54  CZ  ARG A   5      21.592 118.081  22.461  0.00  0.00    +0.342 C 
ATOM     55  NH2 ARG A   5      21.938 119.323  22.764  0.00  0.00    -0.292 N 
ATOM     56 HH21 ARG A   5      21.454 119.824  23.536  0.00  0.00    +0.255 HD
ATOM     57 HH22 ARG A   5      22.694 119.797  22.230  0.00  0.00    +0.255 HD
ATOM     58  NH1 ARG A   5      22.217 117.459  21.467  0.00  0.00    -0.292 N 
ATOM     59 HH11 ARG A   5      21.952 116.485  21.215  0.00  0.00    +0.255 HD
ATOM     60 HH12 ARG A   5      22.971 117.946  20.941  0.00  0.00    +0.255 HD
ENDBRANCH  51  52
ENDBRANCH  50  51
ENDBRANCH  49  50
ENDBRANCH  11  49
ENDBRANCH   7  11
ENDBRANCH   5   8
ENDBRANCH   1   5
BRANCH   2  61
ATOM     61  CA  ARG A   7      14.434 109.896  26.618  0.00  0.00    +0.149 C 
BRANCH  61  62
ATOM     62  C   ARG A   7      13.206 110.708  26.220  0.00  0.00    +0.241 C 
ATOM     63  O   ARG A   7      12.068 110.241  26.335  0.00  0.00    -0.273 OA
ATOM     64  N   ALA A   8      13.446 111.933  25.761  0.00  0.00    -0.297 N 
ATOM     65  H   ALA A   8      14.430 112.265  25.699  0.00  0.00    +0.150 HD
BRANCH  64  66
ATOM     66  CA  ALA A   8      12.375 112.822  25.344  0.00  0.00    +0.149 C 
ATOM     67  CB  ALA A   8      12.914 114.225  25.199  0.00  0.00    +0.031 C 
BRANCH  66  68
ATOM     68  C   ALA A   8      11.769 112.348  24.026  0.00  0.00    +0.241 C 
ATOM     69  O   ALA A   8      10.568 112.492  23.790  0.00  0.00    -0.273 OA
ATOM     70  N   ARG A   9      12.600 111.769  23.168  0.00  0.00    -0.297 N 
ATOM     71  H   ARG A   9      13.602 111.654  23.421  0.00  0.00    +0.150 HD
BRANCH  70  72
ATOM     72  CA  ARG A   9      12.125 111.293  21.875  0.00  0.00    +0.149 C 
BRANCH  72  73
ATOM     73  C   ARG A   9      11.021 110.251  22.004  0.00  0.00    +0.241 C 
ATOM     74  N   GLY A  10      11.198 109.329  22.941  0.00  0.00    -0.295 N 
ATOM     75  H   GLY A  10      12.045 109.367  23.543  0.00  0.00    +0.150 HD
ATOM     76  O   ARG A   9      10.032 110.282  21.275  0.00  0.00    -0.273 OA
BRANCH  74  77
ATOM     77  CA  GLY A  10      10.229 108.269  23.138  0.00  0.00    +0.176 C 
BRANCH  77  78
ATOM     78  C   GLY A  10      10.829 107.083  23.870  0.00  0.00    +0.243 C 
ATOM     79  O   GLY A  10      11.646 107.257  24.775  0.00  0.00    -0.273 OA
ATOM     80  N   GLU A  11      10.438 105.874  23.472  0.00  0.00    -0.298 N 
ATOM     81  H   GLU A  11       9.772 105.795  22.677  0.00  0.00    +0.150 HD
BRANCH  80  82
ATOM     82  CA  GLU A  11      10.919 104.650  24.122  0.00  0.00    +0.137 C 
BRANCH  82  83
ATOM     83  C   GLU A  11      12.350 104.301  23.761  0.00  0.00    +0.227 C 
ATOM     84  O   GLU A  11      12.750 104.402  22.598  0.00  0.00    -0.286 OA
ENDBRANCH  82  83
BRANCH  82  85
ATOM     85  CB  GLU A  11      10.004 103.465  23.769  0.00  0.00    +0.039 C 
BRANCH  85  86
ATOM     86  CG  GLU A  11       8.543 103.660  24.165  0.00  0.00    +0.116 C 
BRANCH  86  87
ATOM     87  CD  GLU A  11       8.310 103.469  25.658  0.00  0.00    +0.365 C 
ATOM     88  OE2 GLU A  11       8.594 104.410  26.433  0.00  0.00    -0.246 OA
ATOM     89  OE1 GLU A  11       7.844 102.381  26.059  0.00  0.00    -0.246 OA
ENDBRANCH  86  87
ENDBRANCH  85  86
ENDBRANCH  82  85
ENDBRANCH  80  82
ENDBRANCH  77  78
ENDBRANCH  74  77
ENDBRANCH  72  73
BRANCH  72  90
ATOM     90  CB  ARG A   9      13.280 110.701  21.064  0.00  0.00    +0.033 C 
BRANCH  90  91
ATOM     91  CG  ARG A   9      12.818 110.027  19.767  0.00  0.00    +0.045 C 
BRANCH  91  92
ATOM     92  CD  ARG A   9      13.986 109.717  18.847  0.00  0.00    +0.174 C 
BRANCH  92  93
ATOM     93  NE  ARG A   9      15.112 109.192  19.614  0.00  0.00    -0.265 N 
ATOM     94  HE  ARG A   9      15.037 109.219  20.651  0.00  0.00    +0.259 HD
ATOM     95  CZ  ARG A   9      16.227 108.681  19.096  0.00  0.00    +0.342 C 
ATOM     96  NH2 ARG A   9      17.172 108.232  19.919  0.00  0.00    -0.292 N 
ATOM     97 HH21 ARG A   9      17.033 108.284  20.948  0.00  0.00    +0.255 HD
ATOM     98 HH22 ARG A   9      18.050 107.829  19.533  0.00  0.00    +0.255 HD
ATOM     99  NH1 ARG A   9      16.396 108.612  17.775  0.00  0.00    -0.292 N 
ATOM    100 HH11 ARG A   9      17.272 108.211  17.383  0.00  0.00    +0.255 HD
ATOM    101 HH12 ARG A   9      15.652 108.960  17.137  0.00  0.00    +0.255 HD
ENDBRANCH  92  93
ENDBRANCH  91  92
ENDBRANCH  90  91
ENDBRANCH  72  90
ENDBRANCH  70  72
ENDBRANCH  66  68
ENDBRANCH  64  66
ENDBRANCH  61  62
BRANCH  61 102
ATOM    102  CB  ARG A   7      14.809 110.242  28.049  0.00  0.00    +0.033 C 
BRANCH 102 103
ATOM    103  CG  ARG A   7      15.491 109.116  28.764  0.00  0.00    +0.045 C 
BRANCH 103 104
ATOM    104  CD  ARG A   7      14.718 108.687  29.991  0.00  0.00    +0.174 C 
BRANCH 104 105
ATOM    105  NE  ARG A   7      15.570 107.875  30.851  0.00  0.00    -0.265 N 
ATOM    106  CZ  ARG A   7      16.774 108.259  31.275  0.00  0.00    +0.342 C 
ATOM    107  NH2 ARG A   7      17.499 107.451  32.047  0.00  0.00    -0.292 N 
ATOM    108 HH21 ARG A   7      18.438 107.752  32.377  0.00  0.00    +0.255 HD
ATOM    109 HH22 ARG A   7      17.126 106.519  32.320  0.00  0.00    +0.255 HD
ATOM    110  NH1 ARG A   7      17.261 109.447  30.916  0.00  0.00    -0.292 N 
ATOM    111 HH11 ARG A   7      18.200 109.746  31.247  0.00  0.00    +0.255 HD
ATOM    112 HH12 ARG A   7      16.701 110.075  30.305  0.00  0.00    +0.255 HD
ATOM    113  HE  ARG A   7      15.219 106.943  31.151  0.00  0.00    +0.259 HD
ENDBRANCH 104 105
ENDBRANCH 103 104
ENDBRANCH 102 103
ENDBRANCH  61 102
ENDBRANCH   2  61
TORSDOF 45
REMARK  Name = ../refined-set-2016/5tmp/5tmp_pocket.pdb
REMARK  287 active torsions:
REMARK  status: ('A' for Active; 'I' for Inactive)
REMARK    1  A    between atoms: _1  and  _3
REMARK    2  A    between atoms: _3  and  _4
REMARK    3  A    between atoms: _3  and  _6
REMARK    4  A    between atoms: _6  and  _7
REMARK    5  A    between atoms: _10  and  _12
REMARK    6  A    between atoms: _12  and  _13
REMARK    7  A    between atoms: _12  and  _15
REMARK    8  A    between atoms: _15  and  _16
REMARK    9  A    between atoms: _16  and  _17
REMARK   10  A    between atoms: _20  and  _22
REMARK   11  A    between atoms: _22  and  _23
REMARK   12  A    between atoms: _25  and  _27
REMARK   13  A    between atoms: _27  and  _28
REMARK   14  A    between atoms: _27  and  _30
REMARK   15  A    between atoms: _30  and  _31
REMARK   16  A    between atoms: _34  and  _36
REMARK   17  A    between atoms: _36  and  _37
REMARK   18  A    between atoms: _36  and  _39
REMARK   19  A    between atoms: _39  and  _40
REMARK   20  A    between atoms: _40  and  _41
REMARK   21  A    between atoms: _44  and  _46
REMARK   22  A    between atoms: _46  and  _47
REMARK   23  A    between atoms: _49  and  _51
REMARK   24  A    between atoms: _51  and  _52
REMARK   25  A    between atoms: _55  and  _57
REMARK   26  A    between atoms: _57  and  _58
REMARK   27  A    between atoms: _60  and  _62
REMARK   28  A    between atoms: _62  and  _63
REMARK   29  A    between atoms: _62  and  _65
REMARK   30  A    between atoms: _65  and  _66
REMARK   31  A    between atoms: _66  and  _67
REMARK   32  A    between atoms: _67  and  _68
REMARK   33  A    between atoms: _68  and  _69
REMARK   34  A    between atoms: _73  and  _75
REMARK   35  A    between atoms: _75  and  _76
REMARK   36  A    between atoms: _75  and  _78
REMARK   37  A    between atoms: _78  and  _79
REMARK   38  A    between atoms: _82  and  _84
REMARK   39  A    between atoms: _84  and  _85
REMARK   40  A    between atoms: _84  and  _87
REMARK   41  A    between atoms: _87  and  _88
REMARK   42  A    between atoms: _91  and  _93
REMARK   43  A    between atoms: _93  and  _94
REMARK   44  A    between atoms: _97  and  _99
REMARK   45  A    between atoms: _99  and  _100
REMARK   46  A    between atoms: _99  and  _102
REMARK   47  A    between atoms: _102  and  _103
REMARK   48  A    between atoms: _103  and  _104
REMARK   49  A    between atoms: _104  and  _105
REMARK   50  A    between atoms: _114  and  _116
REMARK   51  A    between atoms: _116  and  _117
REMARK   52  A    between atoms: _116  and  _119
REMARK   53  A    between atoms: _119  and  _120
REMARK   54  A    between atoms: _120  and  _121
REMARK   55  A    between atoms: _121  and  _122
REMARK   56  A    between atoms: _131  and  _133
REMARK   57  A    between atoms: _133  and  _134
REMARK   58  A    between atoms: _133  and  _136
REMARK   59  A    between atoms: _136  and  _137
REMARK   60  A    between atoms: _137  and  _138
REMARK   61  A    between atoms: _142  and  _143
REMARK   62  A    between atoms: _148  and  _150
REMARK   63  A    between atoms: _150  and  _151
REMARK   64  A    between atoms: _153  and  _155
REMARK   65  A    between atoms: _155  and  _156
REMARK   66  A    between atoms: _155  and  _158
REMARK   67  A    between atoms: _158  and  _159
REMARK   68  A    between atoms: _159  and  _160
REMARK   69  A    between atoms: _160  and  _161
REMARK   70  A    between atoms: _170  and  _172
REMARK   71  A    between atoms: _172  and  _173
REMARK   72  A    between atoms: _172  and  _175
REMARK   73  A    between atoms: _175  and  _176
REMARK   74  A    between atoms: _179  and  _181
REMARK   75  A    between atoms: _181  and  _182
REMARK   76  A    between atoms: _181  and  _184
REMARK   77  A    between atoms: _184  and  _185
REMARK   78  A    between atoms: _188  and  _190
REMARK   79  A    between atoms: _190  and  _191
REMARK   80  A    between atoms: _190  and  _193
REMARK   81  A    between atoms: _193  and  _194
REMARK   82  A    between atoms: _194  and  _195
REMARK   83  A    between atoms: _198  and  _200
REMARK   84  A    between atoms: _200  and  _201
REMARK   85  A    between atoms: _200  and  _203
REMARK   86  A    between atoms: _206  and  _208
REMARK   87  A    between atoms: _208  and  _209
REMARK   88  A    between atoms: _208  and  _211
REMARK   89  A    between atoms: _211  and  _212
REMARK   90  A    between atoms: _212  and  _213
REMARK   91  A    between atoms: _215  and  _217
REMARK   92  A    between atoms: _217  and  _218
REMARK   93  A    between atoms: _217  and  _220
REMARK   94  A    between atoms: _220  and  _221
REMARK   95  A    between atoms: _227  and  _229
REMARK   96  A    between atoms: _229  and  _230
REMARK   97  A    between atoms: _229  and  _232
REMARK   98  A    between atoms: _232  and  _233
REMARK   99  A    between atoms: _238  and  _239
REMARK  100  A    between atoms: _241  and  _243
REMARK  101  A    between atoms: _243  and  _244
REMARK  102  A    between atoms: _247  and  _249
REMARK  103  A    between atoms: _249  and  _250
REMARK  104  A    between atoms: _249  and  _252
REMARK  105  A    between atoms: _252  and  _253
REMARK  106  A    between atoms: _253  and  _254
REMARK  107  A    between atoms: _254  and  _255
REMARK  108  A    between atoms: _264  and  _266
REMARK  109  A    between atoms: _266  and  _267
REMARK  110  A    between atoms: _266  and  _269
REMARK  111  A    between atoms: _269  and  _270
REMARK  112  A    between atoms: _273  and  _275
REMARK  113  A    between atoms: _275  and  _276
REMARK  114  A    between atoms: _275  and  _278
REMARK  115  A    between atoms: _278  and  _279
REMARK  116  A    between atoms: _279  and  _280
REMARK  117  A    between atoms: _280  and  _281
REMARK  118  A    between atoms: _290  and  _292
REMARK  119  A    between atoms: _292  and  _293
REMARK  120  A    between atoms: _292  and  _295
REMARK  121  A    between atoms: _295  and  _296
REMARK  122  A    between atoms: _301  and  _303
REMARK  123  A    between atoms: _303  and  _304
REMARK  124  A    between atoms: _303  and  _306
REMARK  125  A    between atoms: _306  and  _307
REMARK  126  A    between atoms: _310  and  _312
REMARK  127  A    between atoms: _312  and  _313
REMARK  128  A    between atoms: _312  and  _315
REMARK  129  A    between atoms: _315  and  _316
REMARK  130  A    between atoms: _319  and  _321
REMARK  131  A    between atoms: _321  and  _322
REMARK  132  A    between atoms: _321  and  _324
REMARK  133  A    between atoms: _324  and  _325
REMARK  134  A    between atoms: _327  and  _329
REMARK  135  A    between atoms: _329  and  _330
REMARK  136  A    between atoms: _329  and  _332
REMARK  137  A    between atoms: _332  and  _333
REMARK  138  A    between atoms: _336  and  _338
REMARK  139  A    between atoms: _338  and  _339
REMARK  140  A    between atoms: _338  and  _341
REMARK  141  A    between atoms: _341  and  _342
REMARK  142  A    between atoms: _342  and  _343
REMARK  143  A    between atoms: _348  and  _350
REMARK  144  A    between atoms: _350  and  _351
REMARK  145  A    between atoms: _354  and  _356
REMARK  146  A    between atoms: _356  and  _357
REMARK  147  A    between atoms: _356  and  _359
REMARK  148  A    between atoms: _359  and  _360
REMARK  149  A    between atoms: _365  and  _366
REMARK  150  A    between atoms: _368  and  _370
REMARK  151  A    between atoms: _370  and  _371
REMARK  152  A    between atoms: _370  and  _373
REMARK  153  A    between atoms: _373  and  _374
REMARK  154  A    between atoms: _374  and  _375
REMARK  155  A    between atoms: _380  and  _382
REMARK  156  A    between atoms: _382  and  _383
REMARK  157  A    between atoms: _385  and  _387
REMARK  158  A    between atoms: _387  and  _388
REMARK  159  A    between atoms: _390  and  _392
REMARK  160  A    between atoms: _392  and  _393
REMARK  161  A    between atoms: _392  and  _395
REMARK  162  A    between atoms: _395  and  _396
REMARK  163  A    between atoms: _396  and  _397
REMARK  164  A    between atoms: _397  and  _398
REMARK  165  A    between atoms: _407  and  _409
REMARK  166  A    between atoms: _409  and  _410
REMARK  167  A    between atoms: _409  and  _412
REMARK  168  A    between atoms: _412  and  _413
REMARK  169  A    between atoms: _416  and  _418
REMARK  170  A    between atoms: _418  and  _419
REMARK  171  A    between atoms: _418  and  _421
REMARK  172  A    between atoms: _424  and  _426
REMARK  173  A    between atoms: _426  and  _427
REMARK  174  A    between atoms: _426  and  _429
REMARK  175  A    between atoms: _432  and  _434
REMARK  176  A    between atoms: _434  and  _435
REMARK  177  A    between atoms: _437  and  _439
REMARK  178  A    between atoms: _439  and  _440
REMARK  179  A    between atoms: _439  and  _442
REMARK  180  A    between atoms: _442  and  _443
REMARK  181  A    between atoms: _446  and  _448
REMARK  182  A    between atoms: _448  and  _449
REMARK  183  A    between atoms: _448  and  _451
REMARK  184  A    between atoms: _451  and  _452
REMARK  185  A    between atoms: _452  and  _453
REMARK  186  A    between atoms: _453  and  _454
REMARK  187  A    between atoms: _454  and  _455
REMARK  188  A    between atoms: _459  and  _461
REMARK  189  A    between atoms: _461  and  _462
REMARK  190  A    between atoms: _461  and  _464
REMARK  191  A    between atoms: _464  and  _465
REMARK  192  A    between atoms: _465  and  _466
REMARK  193  A    between atoms: _466  and  _467
REMARK  194  A    between atoms: _476  and  _478
REMARK  195  A    between atoms: _478  and  _479
REMARK  196  A    between atoms: _482  and  _484
REMARK  197  A    between atoms: _484  and  _485
REMARK  198  A    between atoms: _484  and  _487
REMARK  199  A    between atoms: _487  and  _488
REMARK  200  A    between atoms: _488  and  _489
REMARK  201  A    between atoms: _489  and  _490
REMARK  202  A    between atoms: _499  and  _501
REMARK  203  A    between atoms: _501  and  _502
REMARK  204  A    between atoms: _505  and  _507
REMARK  205  A    between atoms: _507  and  _508
REMARK  206  A    between atoms: _507  and  _510
REMARK  207  A    between atoms: _510  and  _511
REMARK  208  A    between atoms: _511  and  _512
REMARK  209  A    between atoms: _512  and  _513
REMARK  210  A    between atoms: _522  and  _524
REMARK  211  A    between atoms: _524  and  _525
REMARK  212  A    between atoms: _527  and  _529
REMARK  213  A    between atoms: _529  and  _530
REMARK  214  A    between atoms: _529  and  _532
REMARK  215  A    between atoms: _532  and  _533
REMARK  216  A    between atoms: _533  and  _534
REMARK  217  A    between atoms: _537  and  _539
REMARK  218  A    between atoms: _539  and  _540
REMARK  219  A    between atoms: _539  and  _542
REMARK  220  A    between atoms: _542  and  _543
REMARK  221  A    between atoms: _546  and  _548
REMARK  222  A    between atoms: _548  and  _549
REMARK  223  A    between atoms: _548  and  _551
REMARK  224  A    between atoms: _551  and  _552
REMARK  225  A    between atoms: _552  and  _553
REMARK  226  A    between atoms: _553  and  _554
REMARK  227  A    between atoms: _563  and  _565
REMARK  228  A    between atoms: _565  and  _566
REMARK  229  A    between atoms: _565  and  _568
REMARK  230  A    between atoms: _568  and  _569
REMARK  231  A    between atoms: _572  and  _574
REMARK  232  A    between atoms: _574  and  _575
REMARK  233  A    between atoms: _574  and  _577
REMARK  234  A    between atoms: _577  and  _578
REMARK  235  A    between atoms: _578  and  _579
REMARK  236  A    between atoms: _582  and  _584
REMARK  237  A    between atoms: _584  and  _585
REMARK  238  A    between atoms: _584  and  _587
REMARK  239  A    between atoms: _587  and  _588
REMARK  240  A    between atoms: _588  and  _589
REMARK  241  A    between atoms: _594  and  _596
REMARK  242  A    between atoms: _596  and  _597
REMARK  243  A    between atoms: _596  and  _599
REMARK  244  A    between atoms: _599  and  _600
REMARK  245  A    between atoms: _600  and  _601
REMARK  246  A    between atoms: _604  and  _606
REMARK  247  A    between atoms: _606  and  _607
REMARK  248  A    between atoms: _606  and  _609
REMARK  249  A    between atoms: _609  and  _610
REMARK  250  A    between atoms: _616  and  _618
REMARK  251  A    between atoms: _618  and  _619
REMARK  252  A    between atoms: _618  and  _621
REMARK  253  A    between atoms: _621  and  _622
REMARK  254  A    between atoms: _628  and  _630
REMARK  255  A    between atoms: _630  and  _631
REMARK  256  A    between atoms: _630  and  _633
REMARK  257  A    between atoms: _633  and  _634
REMARK  258  A    between atoms: _637  and  _639
REMARK  259  A    between atoms: _639  and  _640
REMARK  260  A    between atoms: _639  and  _642
REMARK  261  A    between atoms: _642  and  _643
REMARK  262  A    between atoms: _648  and  _649
REMARK  263  A    between atoms: _651  and  _653
REMARK  264  A    between atoms: _653  and  _654
REMARK  265  A    between atoms: _657  and  _659
REMARK  266  A    between atoms: _659  and  _660
REMARK  267  A    between atoms: _659  and  _662
REMARK  268  A    between atoms: _662  and  _663
REMARK  269  A    between atoms: _663  and  _664
REMARK  270  A    between atoms: _670  and  _671
REMARK  271  A    between atoms: _676  and  _678
REMARK  272  A    between atoms: _678  and  _679
REMARK  273  A    between atoms: _678  and  _681
REMARK  274  A    between atoms: _681  and  _682
REMARK  275  A    between atoms: _685  and  _687
REMARK  276  A    between atoms: _687  and  _688
REMARK  277  A    between atoms: _687  and  _690
REMARK  278  A    between atoms: _690  and  _691
REMARK  279  A    between atoms: _691  and  _692
REMARK  280  A    between atoms: _695  and  _697
REMARK  281  A    between atoms: _697  and  _698
REMARK  282  A    between atoms: _697  and  _700
REMARK  283  A    between atoms: _703  and  _705
REMARK  284  A    between atoms: _705  and  _706
REMARK  285  A    between atoms: _705  and  _708
REMARK  286  A    between atoms: _708  and  _709
REMARK  287  A    between atoms: _709  and  _710
REMARK                            x       y       z     vdW  Elec       q    Type
REMARK                         _______ _______ _______ _____ _____    ______ ____
ROOT
ATOM      1  C   ILE A   3      21.051 100.842  24.568  0.00  0.00    +0.241 C 
ATOM      2  O   ILE A   3      21.898 101.175  25.387  0.00  0.00    -0.273 OA
ATOM      3  N   GLU A   4      20.075 101.661  24.187  0.00  0.00    -0.297 N 
ATOM      4  H   GLU A   4      19.376 101.341  23.486  0.00  0.00    +0.150 HD
ENDROOT
BRANCH   1   5
ATOM      5  CA  ILE A   3      21.095  99.446  23.947  0.00  0.00    +0.149 C 
BRANCH   5   8
ATOM      6  C   ARG A   2      19.036  98.322  24.598  0.00  0.00    +0.241 C 
ATOM      7  O   ARG A   2      19.390  98.292  25.775  0.00  0.00    -0.273 OA
ATOM      8  N   ILE A   3      19.782  98.874  23.644  0.00  0.00    -0.297 N 
ATOM      9  H   ILE A   3      19.426  98.899  22.667  0.00  0.00    +0.150 HD
BRANCH   6  10
ATOM     10  CA  ARG A   2      17.689  97.713  24.182  0.00  0.00    +0.149 C 
BRANCH  10  13
ATOM     11  C   ASP A   1      16.607  99.776  23.550  0.00  0.00    +0.239 C 
ATOM     12  O   ASP A   1      16.929 100.307  24.624  0.00  0.00    -0.274 OA
ATOM     13  N   ARG A   2      16.934  98.525  23.245  0.00  0.00    -0.297 N 
ATOM     14  H   ARG A   2      16.647  98.125  22.329  0.00  0.00    +0.150 HD
BRANCH  11  15
ATOM     15  CA  ASP A   1      15.786 100.548  22.506  0.00  0.00    +0.156 C 
BRANCH  15  16
ATOM     16  N   ASP A   1      15.506 101.895  23.011  0.00  0.00    -0.238 NA
ATOM     17  H   ASP A   1      15.934 102.718  22.541  0.00  0.00    +0.142 HD
ENDBRANCH  15  16
BRANCH  15  18
ATOM     18  CB  ASP A   1      16.524 100.591  21.143  0.00  0.00    +0.140 C 
BRANCH  18  19
ATOM     19  CG  ASP A   1      17.942 101.139  21.234  0.00  0.00    +0.367 C 
ATOM     20  OD2 ASP A   1      18.693 100.813  22.177  0.00  0.00    -0.246 OA
ATOM     21  OD1 ASP A   1      18.320 101.904  20.331  0.00  0.00    -0.246 OA
ENDBRANCH  18  19
ENDBRANCH  15  18
ENDBRANCH  11  15
ENDBRANCH  10  13
BRANCH  10  22
ATOM     22  CB  ARG A   2      17.929  96.317  23.604  0.00  0.00    +0.033 C 
BRANCH  22  23
ATOM     23  CG  ARG A   2      18.666  95.416  24.573  0.00  0.00    +0.045 C 
BRANCH  23  24
ATOM     24  CD  ARG A   2      18.887  94.050  23.996  0.00  0.00    +0.174 C 
BRANCH  24  25
ATOM     25  NE  ARG A   2      19.591  94.100  22.718  0.00  0.00    -0.265 N 
ATOM     26  CZ  ARG A   2      20.911  93.972  22.595  0.00  0.00    +0.342 C 
ATOM     27  NH2 ARG A   2      21.662  93.792  23.676  0.00  0.00    -0.292 N 
ATOM     28 HH21 ARG A   2      21.219  93.751  24.616  0.00  0.00    +0.255 HD
ATOM     29 HH22 ARG A   2      22.693  93.692  23.582  0.00  0.00    +0.255 HD
ATOM     30  NH1 ARG A   2      21.479  94.006  21.396  0.00  0.00    -0.292 N 
ATOM     31 HH11 ARG A   2      22.510  93.906  21.306  0.00  0.00    +0.255 HD
ATOM     32 HH12 ARG A   2      20.893  94.133  20.546  0.00  0.00    +0.255 HD
ATOM     33  HE  ARG A   2      19.030  94.244  21.854  0.00  0.00    +0.259 HD
ENDBRANCH  24  25
ENDBRANCH  23  24
ENDBRANCH  22  23
ENDBRANCH  10  22
ENDBRANCH   6  10
ENDBRANCH   5   8
BRANCH   5  34
ATOM     34  CB  ILE A   3      22.017  99.483  22.676  0.00  0.00    +0.027 C 
ATOM     35  CG2 ILE A   3      23.327 100.196  23.000  0.00  0.00    +0.002 C 
BRANCH  34  36
ATOM     36  CG1 ILE A   3      22.351  98.056  22.218  0.00  0.00    +0.002 C 
ATOM     37  CD1 ILE A   3      22.664  97.920  20.747  0.00  0.00    +0.000 C 
ENDBRANCH  34  36
ENDBRANCH   5  34
ENDBRANCH   1   5
BRANCH   3  38
ATOM     38  CA  GLU A   4      19.978 103.008  24.747  0.00  0.00    +0.149 C 
BRANCH  38  39
ATOM     39  C   GLU A   4      19.549 102.986  26.212  0.00  0.00    +0.241 C 
ATOM     40  O   GLU A   4      19.572 104.011  26.892  0.00  0.00    -0.273 OA
ATOM     41  N   GLN A   5      19.161 101.812  26.696  0.00  0.00    -0.297 N 
ATOM     42  H   GLN A   5      19.147 100.985  26.065  0.00  0.00    +0.150 HD
BRANCH  41  43
ATOM     43  CA  GLN A   5      18.754 101.649  28.089  0.00  0.00    +0.149 C 
BRANCH  43  44
ATOM     44  C   GLN A   5      19.975 101.329  28.944  0.00  0.00    +0.241 C 
ATOM     45  O   GLN A   5      19.850 100.966  30.117  0.00  0.00    -0.273 OA
ATOM     46  N   GLU A   6      21.161 101.446  28.358  0.00  0.00    -0.298 N 
ATOM     47  H   GLU A   6      21.215 101.760  27.368  0.00  0.00    +0.150 HD
BRANCH  46  48
ATOM     48  CA  GLU A   6      22.391 101.140  29.083  0.00  0.00    +0.137 C 
BRANCH  48  49
ATOM     49  C   GLU A   6      22.699 102.130  30.212  0.00  0.00    +0.227 C 
ATOM     50  O   GLU A   6      22.021 103.151  30.356  0.00  0.00    -0.286 OA
ENDBRANCH  48  49
BRANCH  48  51
ATOM     51  CB  GLU A   6      23.546 101.076  28.088  0.00  0.00    +0.039 C 
BRANCH  51  52
ATOM     52  CG  GLU A   6      23.682  99.709  27.485  0.00  0.00    +0.116 C 
BRANCH  52  53
ATOM     53  CD  GLU A   6      23.772  98.657  28.558  0.00  0.00    +0.365 C 
ATOM     54  OE2 GLU A   6      24.137  99.015  29.700  0.00  0.00    -0.246 OA
ATOM     55  OE1 GLU A   6      23.477  97.479  28.270  0.00  0.00    -0.246 OA
ENDBRANCH  52  53
ENDBRANCH  51  52
ENDBRANCH  48  51
ENDBRANCH  46  48
ENDBRANCH  43  44
BRANCH  43  56
ATOM     56  CB  GLN A   5      17.773 100.488  28.243  0.00  0.00    +0.039 C 
BRANCH  56  57
ATOM     57  CG  GLN A   5      16.731 100.347  27.156  0.00  0.00    +0.087 C 
BRANCH  57  58
ATOM     58  CD  GLN A   5      15.499  99.611  27.665  0.00  0.00    +0.219 C 
ATOM     59  OE1 GLN A   5      15.585  98.807  28.602  0.00  0.00    -0.275 OA
ATOM     60  NE2 GLN A   5      14.342  99.887  27.057  0.00  0.00    -0.329 N 
ATOM     61 HE21 GLN A   5      13.467  99.419  27.368  0.00  0.00    +0.145 HD
ATOM     62 HE22 GLN A   5      14.316 100.570  26.273  0.00  0.00    +0.145 HD
ENDBRANCH  57  58
ENDBRANCH  56  57
ENDBRANCH  43  56
ENDBRANCH  41  43
ENDBRANCH  38  39
BRANCH  38  63
ATOM     63  CB  GLU A   4      19.013 103.868  23.925  0.00  0.00    +0.041 C 
BRANCH  63  64
ATOM     64  CG  GLU A   4      18.928 105.327  24.388  0.00  0.00    +0.116 C 
BRANCH  64  65
ATOM     65  CD  GLU A   4      20.256 106.112  24.276  0.00  0.00    +0.365 C 
ATOM     66  OE2 GLU A   4      20.579 106.886  25.210  0.00  0.00    -0.246 OA
ATOM     67  OE1 GLU A   4      20.973 105.964  23.262  0.00  0.00    -0.246 OA
ENDBRANCH  64  65
ENDBRANCH  63  64
ENDBRANCH  38  63
ENDBRANCH   3  38
TORSDOF 29
REMARK  Name = ../refined-set-2016/5tmp/5tmp_pocket.pdb
REMARK  287 active torsions:
REMARK  status: ('A' for Active; 'I' for Inactive)
REMARK    1  A    between atoms: _1  and  _3
REMARK    2  A    between atoms: _3  and  _4
REMARK    3  A    between atoms: _3  and  _6
REMARK    4  A    between atoms: _6  and  _7
REMARK    5  A    between atoms: _10  and  _12
REMARK    6  A    between atoms: _12  and  _13
REMARK    7  A    between atoms: _12  and  _15
REMARK    8  A    between atoms: _15  and  _16
REMARK    9  A    between atoms: _16  and  _17
REMARK   10  A    between atoms: _20  and  _22
REMARK   11  A    between atoms: _22  and  _23
REMARK   12  A    between atoms: _25  and  _27
REMARK   13  A    between atoms: _27  and  _28
REMARK   14  A    between atoms: _27  and  _30
REMARK   15  A    between atoms: _30  and  _31
REMARK   16  A    between atoms: _34  and  _36
REMARK   17  A    between atoms: _36  and  _37
REMARK   18  A    between atoms: _36  and  _39
REMARK   19  A    between atoms: _39  and  _40
REMARK   20  A    between atoms: _40  and  _41
REMARK   21  A    between atoms: _44  and  _46
REMARK   22  A    between atoms: _46  and  _47
REMARK   23  A    between atoms: _49  and  _51
REMARK   24  A    between atoms: _51  and  _52
REMARK   25  A    between atoms: _55  and  _57
REMARK   26  A    between atoms: _57  and  _58
REMARK   27  A    between atoms: _60  and  _62
REMARK   28  A    between atoms: _62  and  _63
REMARK   29  A    between atoms: _62  and  _65
REMARK   30  A    between atoms: _65  and  _66
REMARK   31  A    between atoms: _66  and  _67
REMARK   32  A    between atoms: _67  and  _68
REMARK   33  A    between atoms: _68  and  _69
REMARK   34  A    between atoms: _73  and  _75
REMARK   35  A    between atoms: _75  and  _76
REMARK   36  A    between atoms: _75  and  _78
REMARK   37  A    between atoms: _78  and  _79
REMARK   38  A    between atoms: _82  and  _84
REMARK   39  A    between atoms: _84  and  _85
REMARK   40  A    between atoms: _84  and  _87
REMARK   41  A    between atoms: _87  and  _88
REMARK   42  A    between atoms: _91  and  _93
REMARK   43  A    between atoms: _93  and  _94
REMARK   44  A    between atoms: _97  and  _99
REMARK   45  A    between atoms: _99  and  _100
REMARK   46  A    between atoms: _99  and  _102
REMARK   47  A    between atoms: _102  and  _103
REMARK   48  A    between atoms: _103  and  _104
REMARK   49  A    between atoms: _104  and  _105
REMARK   50  A    between atoms: _114  and  _116
REMARK   51  A    between atoms: _116  and  _117
REMARK   52  A    between atoms: _116  and  _119
REMARK   53  A    between atoms: _119  and  _120
REMARK   54  A    between atoms: _120  and  _121
REMARK   55  A    between atoms: _121  and  _122
REMARK   56  A    between atoms: _131  and  _133
REMARK   57  A    between atoms: _133  and  _134
REMARK   58  A    between atoms: _133  and  _136
REMARK   59  A    between atoms: _136  and  _137
REMARK   60  A    between atoms: _137  and  _138
REMARK   61  A    between atoms: _142  and  _143
REMARK   62  A    between atoms: _148  and  _150
REMARK   63  A    between atoms: _150  and  _151
REMARK   64  A    between atoms: _153  and  _155
REMARK   65  A    between atoms: _155  and  _156
REMARK   66  A    between atoms: _155  and  _158
REMARK   67  A    between atoms: _158  and  _159
REMARK   68  A    between atoms: _159  and  _160
REMARK   69  A    between atoms: _160  and  _161
REMARK   70  A    between atoms: _170  and  _172
REMARK   71  A    between atoms: _172  and  _173
REMARK   72  A    between atoms: _172  and  _175
REMARK   73  A    between atoms: _175  and  _176
REMARK   74  A    between atoms: _179  and  _181
REMARK   75  A    between atoms: _181  and  _182
REMARK   76  A    between atoms: _181  and  _184
REMARK   77  A    between atoms: _184  and  _185
REMARK   78  A    between atoms: _188  and  _190
REMARK   79  A    between atoms: _190  and  _191
REMARK   80  A    between atoms: _190  and  _193
REMARK   81  A    between atoms: _193  and  _194
REMARK   82  A    between atoms: _194  and  _195
REMARK   83  A    between atoms: _198  and  _200
REMARK   84  A    between atoms: _200  and  _201
REMARK   85  A    between atoms: _200  and  _203
REMARK   86  A    between atoms: _206  and  _208
REMARK   87  A    between atoms: _208  and  _209
REMARK   88  A    between atoms: _208  and  _211
REMARK   89  A    between atoms: _211  and  _212
REMARK   90  A    between atoms: _212  and  _213
REMARK   91  A    between atoms: _215  and  _217
REMARK   92  A    between atoms: _217  and  _218
REMARK   93  A    between atoms: _217  and  _220
REMARK   94  A    between atoms: _220  and  _221
REMARK   95  A    between atoms: _227  and  _229
REMARK   96  A    between atoms: _229  and  _230
REMARK   97  A    between atoms: _229  and  _232
REMARK   98  A    between atoms: _232  and  _233
REMARK   99  A    between atoms: _238  and  _239
REMARK  100  A    between atoms: _241  and  _243
REMARK  101  A    between atoms: _243  and  _244
REMARK  102  A    between atoms: _247  and  _249
REMARK  103  A    between atoms: _249  and  _250
REMARK  104  A    between atoms: _249  and  _252
REMARK  105  A    between atoms: _252  and  _253
REMARK  106  A    between atoms: _253  and  _254
REMARK  107  A    between atoms: _254  and  _255
REMARK  108  A    between atoms: _264  and  _266
REMARK  109  A    between atoms: _266  and  _267
REMARK  110  A    between atoms: _266  and  _269
REMARK  111  A    between atoms: _269  and  _270
REMARK  112  A    between atoms: _273  and  _275
REMARK  113  A    between atoms: _275  and  _276
REMARK  114  A    between atoms: _275  and  _278
REMARK  115  A    between atoms: _278  and  _279
REMARK  116  A    between atoms: _279  and  _280
REMARK  117  A    between atoms: _280  and  _281
REMARK  118  A    between atoms: _290  and  _292
REMARK  119  A    between atoms: _292  and  _293
REMARK  120  A    between atoms: _292  and  _295
REMARK  121  A    between atoms: _295  and  _296
REMARK  122  A    between atoms: _301  and  _303
REMARK  123  A    between atoms: _303  and  _304
REMARK  124  A    between atoms: _303  and  _306
REMARK  125  A    between atoms: _306  and  _307
REMARK  126  A    between atoms: _310  and  _312
REMARK  127  A    between atoms: _312  and  _313
REMARK  128  A    between atoms: _312  and  _315
REMARK  129  A    between atoms: _315  and  _316
REMARK  130  A    between atoms: _319  and  _321
REMARK  131  A    between atoms: _321  and  _322
REMARK  132  A    between atoms: _321  and  _324
REMARK  133  A    between atoms: _324  and  _325
REMARK  134  A    between atoms: _327  and  _329
REMARK  135  A    between atoms: _329  and  _330
REMARK  136  A    between atoms: _329  and  _332
REMARK  137  A    between atoms: _332  and  _333
REMARK  138  A    between atoms: _336  and  _338
REMARK  139  A    between atoms: _338  and  _339
REMARK  140  A    between atoms: _338  and  _341
REMARK  141  A    between atoms: _341  and  _342
REMARK  142  A    between atoms: _342  and  _343
REMARK  143  A    between atoms: _348  and  _350
REMARK  144  A    between atoms: _350  and  _351
REMARK  145  A    between atoms: _354  and  _356
REMARK  146  A    between atoms: _356  and  _357
REMARK  147  A    between atoms: _356  and  _359
REMARK  148  A    between atoms: _359  and  _360
REMARK  149  A    between atoms: _365  and  _366
REMARK  150  A    between atoms: _368  and  _370
REMARK  151  A    between atoms: _370  and  _371
REMARK  152  A    between atoms: _370  and  _373
REMARK  153  A    between atoms: _373  and  _374
REMARK  154  A    between atoms: _374  and  _375
REMARK  155  A    between atoms: _380  and  _382
REMARK  156  A    between atoms: _382  and  _383
REMARK  157  A    between atoms: _385  and  _387
REMARK  158  A    between atoms: _387  and  _388
REMARK  159  A    between atoms: _390  and  _392
REMARK  160  A    between atoms: _392  and  _393
REMARK  161  A    between atoms: _392  and  _395
REMARK  162  A    between atoms: _395  and  _396
REMARK  163  A    between atoms: _396  and  _397
REMARK  164  A    between atoms: _397  and  _398
REMARK  165  A    between atoms: _407  and  _409
REMARK  166  A    between atoms: _409  and  _410
REMARK  167  A    between atoms: _409  and  _412
REMARK  168  A    between atoms: _412  and  _413
REMARK  169  A    between atoms: _416  and  _418
REMARK  170  A    between atoms: _418  and  _419
REMARK  171  A    between atoms: _418  and  _421
REMARK  172  A    between atoms: _424  and  _426
REMARK  173  A    between atoms: _426  and  _427
REMARK  174  A    between atoms: _426  and  _429
REMARK  175  A    between atoms: _432  and  _434
REMARK  176  A    between atoms: _434  and  _435
REMARK  177  A    between atoms: _437  and  _439
REMARK  178  A    between atoms: _439  and  _440
REMARK  179  A    between atoms: _439  and  _442
REMARK  180  A    between atoms: _442  and  _443
REMARK  181  A    between atoms: _446  and  _448
REMARK  182  A    between atoms: _448  and  _449
REMARK  183  A    between atoms: _448  and  _451
REMARK  184  A    between atoms: _451  and  _452
REMARK  185  A    between atoms: _452  and  _453
REMARK  186  A    between atoms: _453  and  _454
REMARK  187  A    between atoms: _454  and  _455
REMARK  188  A    between atoms: _459  and  _461
REMARK  189  A    between atoms: _461  and  _462
REMARK  190  A    between atoms: _461  and  _464
REMARK  191  A    between atoms: _464  and  _465
REMARK  192  A    between atoms: _465  and  _466
REMARK  193  A    between atoms: _466  and  _467
REMARK  194  A    between atoms: _476  and  _478
REMARK  195  A    between atoms: _478  and  _479
REMARK  196  A    between atoms: _482  and  _484
REMARK  197  A    between atoms: _484  and  _485
REMARK  198  A    between atoms: _484  and  _487
REMARK  199  A    between atoms: _487  and  _488
REMARK  200  A    between atoms: _488  and  _489
REMARK  201  A    between atoms: _489  and  _490
REMARK  202  A    between atoms: _499  and  _501
REMARK  203  A    between atoms: _501  and  _502
REMARK  204  A    between atoms: _505  and  _507
REMARK  205  A    between atoms: _507  and  _508
REMARK  206  A    between atoms: _507  and  _510
REMARK  207  A    between atoms: _510  and  _511
REMARK  208  A    between atoms: _511  and  _512
REMARK  209  A    between atoms: _512  and  _513
REMARK  210  A    between atoms: _522  and  _524
REMARK  211  A    between atoms: _524  and  _525
REMARK  212  A    between atoms: _527  and  _529
REMARK  213  A    between atoms: _529  and  _530
REMARK  214  A    between atoms: _529  and  _532
REMARK  215  A    between atoms: _532  and  _533
REMARK  216  A    between atoms: _533  and  _534
REMARK  217  A    between atoms: _537  and  _539
REMARK  218  A    between atoms: _539  and  _540
REMARK  219  A    between atoms: _539  and  _542
REMARK  220  A    between atoms: _542  and  _543
REMARK  221  A    between atoms: _546  and  _548
REMARK  222  A    between atoms: _548  and  _549
REMARK  223  A    between atoms: _548  and  _551
REMARK  224  A    between atoms: _551  and  _552
REMARK  225  A    between atoms: _552  and  _553
REMARK  226  A    between atoms: _553  and  _554
REMARK  227  A    between atoms: _563  and  _565
REMARK  228  A    between atoms: _565  and  _566
REMARK  229  A    between atoms: _565  and  _568
REMARK  230  A    between atoms: _568  and  _569
REMARK  231  A    between atoms: _572  and  _574
REMARK  232  A    between atoms: _574  and  _575
REMARK  233  A    between atoms: _574  and  _577
REMARK  234  A    between atoms: _577  and  _578
REMARK  235  A    between atoms: _578  and  _579
REMARK  236  A    between atoms: _582  and  _584
REMARK  237  A    between atoms: _584  and  _585
REMARK  238  A    between atoms: _584  and  _587
REMARK  239  A    between atoms: _587  and  _588
REMARK  240  A    between atoms: _588  and  _589
REMARK  241  A    between atoms: _594  and  _596
REMARK  242  A    between atoms: _596  and  _597
REMARK  243  A    between atoms: _596  and  _599
REMARK  244  A    between atoms: _599  and  _600
REMARK  245  A    between atoms: _600  and  _601
REMARK  246  A    between atoms: _604  and  _606
REMARK  247  A    between atoms: _606  and  _607
REMARK  248  A    between atoms: _606  and  _609
REMARK  249  A    between atoms: _609  and  _610
REMARK  250  A    between atoms: _616  and  _618
REMARK  251  A    between atoms: _618  and  _619
REMARK  252  A    between atoms: _618  and  _621
REMARK  253  A    between atoms: _621  and  _622
REMARK  254  A    between atoms: _628  and  _630
REMARK  255  A    between atoms: _630  and  _631
REMARK  256  A    between atoms: _630  and  _633
REMARK  257  A    between atoms: _633  and  _634
REMARK  258  A    between atoms: _637  and  _639
REMARK  259  A    between atoms: _639  and  _640
REMARK  260  A    between atoms: _639  and  _642
REMARK  261  A    between atoms: _642  and  _643
REMARK  262  A    between atoms: _648  and  _649
REMARK  263  A    between atoms: _651  and  _653
REMARK  264  A    between atoms: _653  and  _654
REMARK  265  A    between atoms: _657  and  _659
REMARK  266  A    between atoms: _659  and  _660
REMARK  267  A    between atoms: _659  and  _662
REMARK  268  A    between atoms: _662  and  _663
REMARK  269  A    between atoms: _663  and  _664
REMARK  270  A    between atoms: _670  and  _671
REMARK  271  A    between atoms: _676  and  _678
REMARK  272  A    between atoms: _678  and  _679
REMARK  273  A    between atoms: _678  and  _681
REMARK  274  A    between atoms: _681  and  _682
REMARK  275  A    between atoms: _685  and  _687
REMARK  276  A    between atoms: _687  and  _688
REMARK  277  A    between atoms: _687  and  _690
REMARK  278  A    between atoms: _690  and  _691
REMARK  279  A    between atoms: _691  and  _692
REMARK  280  A    between atoms: _695  and  _697
REMARK  281  A    between atoms: _697  and  _698
REMARK  282  A    between atoms: _697  and  _700
REMARK  283  A    between atoms: _703  and  _705
REMARK  284  A    between atoms: _705  and  _706
REMARK  285  A    between atoms: _705  and  _708
REMARK  286  A    between atoms: _708  and  _709
REMARK  287  A    between atoms: _709  and  _710
REMARK                            x       y       z     vdW  Elec       q    Type
REMARK                         _______ _______ _______ _____ _____    ______ ____
ROOT
ATOM      1  C   PHE A   1      28.544 103.403  28.333  0.00  0.00    +0.239 C 
ATOM      2  N   PHE A   2      27.768 104.472  28.447  0.00  0.00    -0.298 N 
ATOM      3  H   PHE A   2      27.098 104.520  29.241  0.00  0.00    +0.150 HD
ATOM      4  O   PHE A   1      29.365 103.264  27.423  0.00  0.00    -0.274 OA
ENDROOT
BRANCH   1   5
ATOM      5  CA  PHE A   1      28.372 102.339  29.425  0.00  0.00    +0.149 C 
BRANCH   5   6
ATOM      6  N   PHE A   1      28.265 103.022  30.711  0.00  0.00    -0.238 NA
ATOM      7  H   PHE A   1      27.388 102.946  31.264  0.00  0.00    +0.142 HD
ENDBRANCH   5   6
BRANCH   5   8
ATOM      8  CB  PHE A   1      27.118 101.485  29.174  0.00  0.00    +0.053 C 
BRANCH   8   9
ATOM      9  CG  PHE A   1      27.045 100.895  27.789  0.00  0.00    -0.020 A 
ATOM     10  CD2 PHE A   1      27.487  99.592  27.546  0.00  0.00    -0.004 A 
ATOM     11  CE2 PHE A   1      27.418  99.035  26.255  0.00  0.00    -0.000 A 
ATOM     12  CZ  PHE A   1      26.902  99.784  25.206  0.00  0.00    -0.000 A 
ATOM     13  CE1 PHE A   1      26.455 101.089  25.443  0.00  0.00    -0.000 A 
ATOM     14  CD1 PHE A   1      26.530 101.635  26.728  0.00  0.00    -0.004 A 
ENDBRANCH   8   9
ENDBRANCH   5   8
ENDBRANCH   1   5
BRANCH   2  15
ATOM     15  CA  PHE A   2      27.816 105.582  27.504  0.00  0.00    +0.141 C 
BRANCH  15  16
ATOM     16  C   PHE A   2      29.120 106.386  27.682  0.00  0.00    +0.227 C 
ATOM     17  O   PHE A   2      29.660 106.957  26.724  0.00  0.00    -0.286 OA
ENDBRANCH  15  16
BRANCH  15  18
ATOM     18  CB  PHE A   2      26.603 106.489  27.731  0.00  0.00    +0.054 C 
BRANCH  18  19
ATOM     19  CG  PHE A   2      25.290 105.850  27.371  0.00  0.00    -0.020 A 
ATOM     20  CD2 PHE A   2      24.293 105.694  28.329  0.00  0.00    -0.004 A 
ATOM     21  CE2 PHE A   2      23.076 105.108  27.993  0.00  0.00    -0.000 A 
ATOM     22  CZ  PHE A   2      22.849 104.668  26.689  0.00  0.00    -0.000 A 
ATOM     23  CE1 PHE A   2      23.835 104.816  25.724  0.00  0.00    -0.000 A 
ATOM     24  CD1 PHE A   2      25.047 105.405  26.066  0.00  0.00    -0.004 A 
ENDBRANCH  18  19
ENDBRANCH  15  18
ENDBRANCH   2  15
TORSDOF 8
REMARK  Name = ../refined-set-2016/5tmp/5tmp_pocket.pdb
REMARK  287 active torsions:
REMARK  status: ('A' for Active; 'I' for Inactive)
REMARK    1  A    between atoms: _1  and  _3
REMARK    2  A    between atoms: _3  and  _4
REMARK    3  A    between atoms: _3  and  _6
REMARK    4  A    between atoms: _6  and  _7
REMARK    5  A    between atoms: _10  and  _12
REMARK    6  A    between atoms: _12  and  _13
REMARK    7  A    between atoms: _12  and  _15
REMARK    8  A    between atoms: _15  and  _16
REMARK    9  A    between atoms: _16  and  _17
REMARK   10  A    between atoms: _20  and  _22
REMARK   11  A    between atoms: _22  and  _23
REMARK   12  A    between atoms: _25  and  _27
REMARK   13  A    between atoms: _27  and  _28
REMARK   14  A    between atoms: _27  and  _30
REMARK   15  A    between atoms: _30  and  _31
REMARK   16  A    between atoms: _34  and  _36
REMARK   17  A    between atoms: _36  and  _37
REMARK   18  A    between atoms: _36  and  _39
REMARK   19  A    between atoms: _39  and  _40
REMARK   20  A    between atoms: _40  and  _41
REMARK   21  A    between atoms: _44  and  _46
REMARK   22  A    between atoms: _46  and  _47
REMARK   23  A    between atoms: _49  and  _51
REMARK   24  A    between atoms: _51  and  _52
REMARK   25  A    between atoms: _55  and  _57
REMARK   26  A    between atoms: _57  and  _58
REMARK   27  A    between atoms: _60  and  _62
REMARK   28  A    between atoms: _62  and  _63
REMARK   29  A    between atoms: _62  and  _65
REMARK   30  A    between atoms: _65  and  _66
REMARK   31  A    between atoms: _66  and  _67
REMARK   32  A    between atoms: _67  and  _68
REMARK   33  A    between atoms: _68  and  _69
REMARK   34  A    between atoms: _73  and  _75
REMARK   35  A    between atoms: _75  and  _76
REMARK   36  A    between atoms: _75  and  _78
REMARK   37  A    between atoms: _78  and  _79
REMARK   38  A    between atoms: _82  and  _84
REMARK   39  A    between atoms: _84  and  _85
REMARK   40  A    between atoms: _84  and  _87
REMARK   41  A    between atoms: _87  and  _88
REMARK   42  A    between atoms: _91  and  _93
REMARK   43  A    between atoms: _93  and  _94
REMARK   44  A    between atoms: _97  and  _99
REMARK   45  A    between atoms: _99  and  _100
REMARK   46  A    between atoms: _99  and  _102
REMARK   47  A    between atoms: _102  and  _103
REMARK   48  A    between atoms: _103  and  _104
REMARK   49  A    between atoms: _104  and  _105
REMARK   50  A    between atoms: _114  and  _116
REMARK   51  A    between atoms: _116  and  _117
REMARK   52  A    between atoms: _116  and  _119
REMARK   53  A    between atoms: _119  and  _120
REMARK   54  A    between atoms: _120  and  _121
REMARK   55  A    between atoms: _121  and  _122
REMARK   56  A    between atoms: _131  and  _133
REMARK   57  A    between atoms: _133  and  _134
REMARK   58  A    between atoms: _133  and  _136
REMARK   59  A    between atoms: _136  and  _137
REMARK   60  A    between atoms: _137  and  _138
REMARK   61  A    between atoms: _142  and  _143
REMARK   62  A    between atoms: _148  and  _150
REMARK   63  A    between atoms: _150  and  _151
REMARK   64  A    between atoms: _153  and  _155
REMARK   65  A    between atoms: _155  and  _156
REMARK   66  A    between atoms: _155  and  _158
REMARK   67  A    between atoms: _158  and  _159
REMARK   68  A    between atoms: _159  and  _160
REMARK   69  A    between atoms: _160  and  _161
REMARK   70  A    between atoms: _170  and  _172
REMARK   71  A    between atoms: _172  and  _173
REMARK   72  A    between atoms: _172  and  _175
REMARK   73  A    between atoms: _175  and  _176
REMARK   74  A    between atoms: _179  and  _181
REMARK   75  A    between atoms: _181  and  _182
REMARK   76  A    between atoms: _181  and  _184
REMARK   77  A    between atoms: _184  and  _185
REMARK   78  A    between atoms: _188  and  _190
REMARK   79  A    between atoms: _190  and  _191
REMARK   80  A    between atoms: _190  and  _193
REMARK   81  A    between atoms: _193  and  _194
REMARK   82  A    between atoms: _194  and  _195
REMARK   83  A    between atoms: _198  and  _200
REMARK   84  A    between atoms: _200  and  _201
REMARK   85  A    between atoms: _200  and  _203
REMARK   86  A    between atoms: _206  and  _208
REMARK   87  A    between atoms: _208  and  _209
REMARK   88  A    between atoms: _208  and  _211
REMARK   89  A    between atoms: _211  and  _212
REMARK   90  A    between atoms: _212  and  _213
REMARK   91  A    between atoms: _215  and  _217
REMARK   92  A    between atoms: _217  and  _218
REMARK   93  A    between atoms: _217  and  _220
REMARK   94  A    between atoms: _220  and  _221
REMARK   95  A    between atoms: _227  and  _229
REMARK   96  A    between atoms: _229  and  _230
REMARK   97  A    between atoms: _229  and  _232
REMARK   98  A    between atoms: _232  and  _233
REMARK   99  A    between atoms: _238  and  _239
REMARK  100  A    between atoms: _241  and  _243
REMARK  101  A    between atoms: _243  and  _244
REMARK  102  A    between atoms: _247  and  _249
REMARK  103  A    between atoms: _249  and  _250
REMARK  104  A    between atoms: _249  and  _252
REMARK  105  A    between atoms: _252  and  _253
REMARK  106  A    between atoms: _253  and  _254
REMARK  107  A    between atoms: _254  and  _255
REMARK  108  A    between atoms: _264  and  _266
REMARK  109  A    between atoms: _266  and  _267
REMARK  110  A    between atoms: _266  and  _269
REMARK  111  A    between atoms: _269  and  _270
REMARK  112  A    between atoms: _273  and  _275
REMARK  113  A    between atoms: _275  and  _276
REMARK  114  A    between atoms: _275  and  _278
REMARK  115  A    between atoms: _278  and  _279
REMARK  116  A    between atoms: _279  and  _280
REMARK  117  A    between atoms: _280  and  _281
REMARK  118  A    between atoms: _290  and  _292
REMARK  119  A    between atoms: _292  and  _293
REMARK  120  A    between atoms: _292  and  _295
REMARK  121  A    between atoms: _295  and  _296
REMARK  122  A    between atoms: _301  and  _303
REMARK  123  A    between atoms: _303  and  _304
REMARK  124  A    between atoms: _303  and  _306
REMARK  125  A    between atoms: _306  and  _307
REMARK  126  A    between atoms: _310  and  _312
REMARK  127  A    between atoms: _312  and  _313
REMARK  128  A    between atoms: _312  and  _315
REMARK  129  A    between atoms: _315  and  _316
REMARK  130  A    between atoms: _319  and  _321
REMARK  131  A    between atoms: _321  and  _322
REMARK  132  A    between atoms: _321  and  _324
REMARK  133  A    between atoms: _324  and  _325
REMARK  134  A    between atoms: _327  and  _329
REMARK  135  A    between atoms: _329  and  _330
REMARK  136  A    between atoms: _329  and  _332
REMARK  137  A    between atoms: _332  and  _333
REMARK  138  A    between atoms: _336  and  _338
REMARK  139  A    between atoms: _338  and  _339
REMARK  140  A    between atoms: _338  and  _341
REMARK  141  A    between atoms: _341  and  _342
REMARK  142  A    between atoms: _342  and  _343
REMARK  143  A    between atoms: _348  and  _350
REMARK  144  A    between atoms: _350  and  _351
REMARK  145  A    between atoms: _354  and  _356
REMARK  146  A    between atoms: _356  and  _357
REMARK  147  A    between atoms: _356  and  _359
REMARK  148  A    between atoms: _359  and  _360
REMARK  149  A    between atoms: _365  and  _366
REMARK  150  A    between atoms: _368  and  _370
REMARK  151  A    between atoms: _370  and  _371
REMARK  152  A    between atoms: _370  and  _373
REMARK  153  A    between atoms: _373  and  _374
REMARK  154  A    between atoms: _374  and  _375
REMARK  155  A    between atoms: _380  and  _382
REMARK  156  A    between atoms: _382  and  _383
REMARK  157  A    between atoms: _385  and  _387
REMARK  158  A    between atoms: _387  and  _388
REMARK  159  A    between atoms: _390  and  _392
REMARK  160  A    between atoms: _392  and  _393
REMARK  161  A    between atoms: _392  and  _395
REMARK  162  A    between atoms: _395  and  _396
REMARK  163  A    between atoms: _396  and  _397
REMARK  164  A    between atoms: _397  and  _398
REMARK  165  A    between atoms: _407  and  _409
REMARK  166  A    between atoms: _409  and  _410
REMARK  167  A    between atoms: _409  and  _412
REMARK  168  A    between atoms: _412  and  _413
REMARK  169  A    between atoms: _416  and  _418
REMARK  170  A    between atoms: _418  and  _419
REMARK  171  A    between atoms: _418  and  _421
REMARK  172  A    between atoms: _424  and  _426
REMARK  173  A    between atoms: _426  and  _427
REMARK  174  A    between atoms: _426  and  _429
REMARK  175  A    between atoms: _432  and  _434
REMARK  176  A    between atoms: _434  and  _435
REMARK  177  A    between atoms: _437  and  _439
REMARK  178  A    between atoms: _439  and  _440
REMARK  179  A    between atoms: _439  and  _442
REMARK  180  A    between atoms: _442  and  _443
REMARK  181  A    between atoms: _446  and  _448
REMARK  182  A    between atoms: _448  and  _449
REMARK  183  A    between atoms: _448  and  _451
REMARK  184  A    between atoms: _451  and  _452
REMARK  185  A    between atoms: _452  and  _453
REMARK  186  A    between atoms: _453  and  _454
REMARK  187  A    between atoms: _454  and  _455
REMARK  188  A    between atoms: _459  and  _461
REMARK  189  A    between atoms: _461  and  _462
REMARK  190  A    between atoms: _461  and  _464
REMARK  191  A    between atoms: _464  and  _465
REMARK  192  A    between atoms: _465  and  _466
REMARK  193  A    between atoms: _466  and  _467
REMARK  194  A    between atoms: _476  and  _478
REMARK  195  A    between atoms: _478  and  _479
REMARK  196  A    between atoms: _482  and  _484
REMARK  197  A    between atoms: _484  and  _485
REMARK  198  A    between atoms: _484  and  _487
REMARK  199  A    between atoms: _487  and  _488
REMARK  200  A    between atoms: _488  and  _489
REMARK  201  A    between atoms: _489  and  _490
REMARK  202  A    between atoms: _499  and  _501
REMARK  203  A    between atoms: _501  and  _502
REMARK  204  A    between atoms: _505  and  _507
REMARK  205  A    between atoms: _507  and  _508
REMARK  206  A    between atoms: _507  and  _510
REMARK  207  A    between atoms: _510  and  _511
REMARK  208  A    between atoms: _511  and  _512
REMARK  209  A    between atoms: _512  and  _513
REMARK  210  A    between atoms: _522  and  _524
REMARK  211  A    between atoms: _524  and  _525
REMARK  212  A    between atoms: _527  and  _529
REMARK  213  A    between atoms: _529  and  _530
REMARK  214  A    between atoms: _529  and  _532
REMARK  215  A    between atoms: _532  and  _533
REMARK  216  A    between atoms: _533  and  _534
REMARK  217  A    between atoms: _537  and  _539
REMARK  218  A    between atoms: _539  and  _540
REMARK  219  A    between atoms: _539  and  _542
REMARK  220  A    between atoms: _542  and  _543
REMARK  221  A    between atoms: _546  and  _548
REMARK  222  A    between atoms: _548  and  _549
REMARK  223  A    between atoms: _548  and  _551
REMARK  224  A    between atoms: _551  and  _552
REMARK  225  A    between atoms: _552  and  _553
REMARK  226  A    between atoms: _553  and  _554
REMARK  227  A    between atoms: _563  and  _565
REMARK  228  A    between atoms: _565  and  _566
REMARK  229  A    between atoms: _565  and  _568
REMARK  230  A    between atoms: _568  and  _569
REMARK  231  A    between atoms: _572  and  _574
REMARK  232  A    between atoms: _574  and  _575
REMARK  233  A    between atoms: _574  and  _577
REMARK  234  A    between atoms: _577  and  _578
REMARK  235  A    between atoms: _578  and  _579
REMARK  236  A    between atoms: _582  and  _584
REMARK  237  A    between atoms: _584  and  _585
REMARK  238  A    between atoms: _584  and  _587
REMARK  239  A    between atoms: _587  and  _588
REMARK  240  A    between atoms: _588  and  _589
REMARK  241  A    between atoms: _594  and  _596
REMARK  242  A    between atoms: _596  and  _597
REMARK  243  A    between atoms: _596  and  _599
REMARK  244  A    between atoms: _599  and  _600
REMARK  245  A    between atoms: _600  and  _601
REMARK  246  A    between atoms: _604  and  _606
REMARK  247  A    between atoms: _606  and  _607
REMARK  248  A    between atoms: _606  and  _609
REMARK  249  A    between atoms: _609  and  _610
REMARK  250  A    between atoms: _616  and  _618
REMARK  251  A    between atoms: _618  and  _619
REMARK  252  A    between atoms: _618  and  _621
REMARK  253  A    between atoms: _621  and  _622
REMARK  254  A    between atoms: _628  and  _630
REMARK  255  A    between atoms: _630  and  _631
REMARK  256  A    between atoms: _630  and  _633
REMARK  257  A    between atoms: _633  and  _634
REMARK  258  A    between atoms: _637  and  _639
REMARK  259  A    between atoms: _639  and  _640
REMARK  260  A    between atoms: _639  and  _642
REMARK  261  A    between atoms: _642  and  _643
REMARK  262  A    between atoms: _648  and  _649
REMARK  263  A    between atoms: _651  and  _653
REMARK  264  A    between atoms: _653  and  _654
REMARK  265  A    between atoms: _657  and  _659
REMARK  266  A    between atoms: _659  and  _660
REMARK  267  A    between atoms: _659  and  _662
REMARK  268  A    between atoms: _662  and  _663
REMARK  269  A    between atoms: _663  and  _664
REMARK  270  A    between atoms: _670  and  _671
REMARK  271  A    between atoms: _676  and  _678
REMARK  272  A    between atoms: _678  and  _679
REMARK  273  A    between atoms: _678  and  _681
REMARK  274  A    between atoms: _681  and  _682
REMARK  275  A    between atoms: _685  and  _687
REMARK  276  A    between atoms: _687  and  _688
REMARK  277  A    between atoms: _687  and  _690
REMARK  278  A    between atoms: _690  and  _691
REMARK  279  A    between atoms: _691  and  _692
REMARK  280  A    between atoms: _695  and  _697
REMARK  281  A    between atoms: _697  and  _698
REMARK  282  A    between atoms: _697  and  _700
REMARK  283  A    between atoms: _703  and  _705
REMARK  284  A    between atoms: _705  and  _706
REMARK  285  A    between atoms: _705  and  _708
REMARK  286  A    between atoms: _708  and  _709
REMARK  287  A    between atoms: _709  and  _710
REMARK                            x       y       z     vdW  Elec       q    Type
REMARK                         _______ _______ _______ _____ _____    ______ ____
ROOT
ATOM      1  CA  THR A   1      31.494 104.484  24.630  0.00  0.00    +0.160 C 
ENDROOT
BRANCH   1   2
ATOM      2  N   THR A   1      31.730 104.447  26.072  0.00  0.00    -0.237 NA
ATOM      3  H   THR A   1      30.925 104.425  26.730  0.00  0.00    +0.142 HD
ENDBRANCH   1   2
BRANCH   1   4
ATOM      4  CB  THR A   1      29.986 104.350  24.283  0.00  0.00    +0.134 C 
ATOM      5  CG2 THR A   1      29.761 104.601  22.782  0.00  0.00    +0.034 C 
BRANCH   4   6
ATOM      6  OG1 THR A   1      29.527 103.037  24.624  0.00  0.00    -0.383 OA
ATOM      7  HG1 THR A   1      29.656 102.885  25.594  0.00  0.00    +0.210 HD
ENDBRANCH   4   6
ENDBRANCH   1   4
BRANCH   1   8
ATOM      8  C   THR A   1      32.006 105.783  24.013  0.00  0.00    +0.227 C 
ATOM      9  O   THR A   1      32.639 105.775  22.955  0.00  0.00    -0.287 OA
ENDBRANCH   1   8
TORSDOF 4
REMARK  Name = ../refined-set-2016/5tmp/5tmp_pocket.pdb
REMARK  287 active torsions:
REMARK  status: ('A' for Active; 'I' for Inactive)
REMARK    1  A    between atoms: _1  and  _3
REMARK    2  A    between atoms: _3  and  _4
REMARK    3  A    between atoms: _3  and  _6
REMARK    4  A    between atoms: _6  and  _7
REMARK    5  A    between atoms: _10  and  _12
REMARK    6  A    between atoms: _12  and  _13
REMARK    7  A    between atoms: _12  and  _15
REMARK    8  A    between atoms: _15  and  _16
REMARK    9  A    between atoms: _16  and  _17
REMARK   10  A    between atoms: _20  and  _22
REMARK   11  A    between atoms: _22  and  _23
REMARK   12  A    between atoms: _25  and  _27
REMARK   13  A    between atoms: _27  and  _28
REMARK   14  A    between atoms: _27  and  _30
REMARK   15  A    between atoms: _30  and  _31
REMARK   16  A    between atoms: _34  and  _36
REMARK   17  A    between atoms: _36  and  _37
REMARK   18  A    between atoms: _36  and  _39
REMARK   19  A    between atoms: _39  and  _40
REMARK   20  A    between atoms: _40  and  _41
REMARK   21  A    between atoms: _44  and  _46
REMARK   22  A    between atoms: _46  and  _47
REMARK   23  A    between atoms: _49  and  _51
REMARK   24  A    between atoms: _51  and  _52
REMARK   25  A    between atoms: _55  and  _57
REMARK   26  A    between atoms: _57  and  _58
REMARK   27  A    between atoms: _60  and  _62
REMARK   28  A    between atoms: _62  and  _63
REMARK   29  A    between atoms: _62  and  _65
REMARK   30  A    between atoms: _65  and  _66
REMARK   31  A    between atoms: _66  and  _67
REMARK   32  A    between atoms: _67  and  _68
REMARK   33  A    between atoms: _68  and  _69
REMARK   34  A    between atoms: _73  and  _75
REMARK   35  A    between atoms: _75  and  _76
REMARK   36  A    between atoms: _75  and  _78
REMARK   37  A    between atoms: _78  and  _79
REMARK   38  A    between atoms: _82  and  _84
REMARK   39  A    between atoms: _84  and  _85
REMARK   40  A    between atoms: _84  and  _87
REMARK   41  A    between atoms: _87  and  _88
REMARK   42  A    between atoms: _91  and  _93
REMARK   43  A    between atoms: _93  and  _94
REMARK   44  A    between atoms: _97  and  _99
REMARK   45  A    between atoms: _99  and  _100
REMARK   46  A    between atoms: _99  and  _102
REMARK   47  A    between atoms: _102  and  _103
REMARK   48  A    between atoms: _103  and  _104
REMARK   49  A    between atoms: _104  and  _105
REMARK   50  A    between atoms: _114  and  _116
REMARK   51  A    between atoms: _116  and  _117
REMARK   52  A    between atoms: _116  and  _119
REMARK   53  A    between atoms: _119  and  _120
REMARK   54  A    between atoms: _120  and  _121
REMARK   55  A    between atoms: _121  and  _122
REMARK   56  A    between atoms: _131  and  _133
REMARK   57  A    between atoms: _133  and  _134
REMARK   58  A    between atoms: _133  and  _136
REMARK   59  A    between atoms: _136  and  _137
REMARK   60  A    between atoms: _137  and  _138
REMARK   61  A    between atoms: _142  and  _143
REMARK   62  A    between atoms: _148  and  _150
REMARK   63  A    between atoms: _150  and  _151
REMARK   64  A    between atoms: _153  and  _155
REMARK   65  A    between atoms: _155  and  _156
REMARK   66  A    between atoms: _155  and  _158
REMARK   67  A    between atoms: _158  and  _159
REMARK   68  A    between atoms: _159  and  _160
REMARK   69  A    between atoms: _160  and  _161
REMARK   70  A    between atoms: _170  and  _172
REMARK   71  A    between atoms: _172  and  _173
REMARK   72  A    between atoms: _172  and  _175
REMARK   73  A    between atoms: _175  and  _176
REMARK   74  A    between atoms: _179  and  _181
REMARK   75  A    between atoms: _181  and  _182
REMARK   76  A    between atoms: _181  and  _184
REMARK   77  A    between atoms: _184  and  _185
REMARK   78  A    between atoms: _188  and  _190
REMARK   79  A    between atoms: _190  and  _191
REMARK   80  A    between atoms: _190  and  _193
REMARK   81  A    between atoms: _193  and  _194
REMARK   82  A    between atoms: _194  and  _195
REMARK   83  A    between atoms: _198  and  _200
REMARK   84  A    between atoms: _200  and  _201
REMARK   85  A    between atoms: _200  and  _203
REMARK   86  A    between atoms: _206  and  _208
REMARK   87  A    between atoms: _208  and  _209
REMARK   88  A    between atoms: _208  and  _211
REMARK   89  A    between atoms: _211  and  _212
REMARK   90  A    between atoms: _212  and  _213
REMARK   91  A    between atoms: _215  and  _217
REMARK   92  A    between atoms: _217  and  _218
REMARK   93  A    between atoms: _217  and  _220
REMARK   94  A    between atoms: _220  and  _221
REMARK   95  A    between atoms: _227  and  _229
REMARK   96  A    between atoms: _229  and  _230
REMARK   97  A    between atoms: _229  and  _232
REMARK   98  A    between atoms: _232  and  _233
REMARK   99  A    between atoms: _238  and  _239
REMARK  100  A    between atoms: _241  and  _243
REMARK  101  A    between atoms: _243  and  _244
REMARK  102  A    between atoms: _247  and  _249
REMARK  103  A    between atoms: _249  and  _250
REMARK  104  A    between atoms: _249  and  _252
REMARK  105  A    between atoms: _252  and  _253
REMARK  106  A    between atoms: _253  and  _254
REMARK  107  A    between atoms: _254  and  _255
REMARK  108  A    between atoms: _264  and  _266
REMARK  109  A    between atoms: _266  and  _267
REMARK  110  A    between atoms: _266  and  _269
REMARK  111  A    between atoms: _269  and  _270
REMARK  112  A    between atoms: _273  and  _275
REMARK  113  A    between atoms: _275  and  _276
REMARK  114  A    between atoms: _275  and  _278
REMARK  115  A    between atoms: _278  and  _279
REMARK  116  A    between atoms: _279  and  _280
REMARK  117  A    between atoms: _280  and  _281
REMARK  118  A    between atoms: _290  and  _292
REMARK  119  A    between atoms: _292  and  _293
REMARK  120  A    between atoms: _292  and  _295
REMARK  121  A    between atoms: _295  and  _296
REMARK  122  A    between atoms: _301  and  _303
REMARK  123  A    between atoms: _303  and  _304
REMARK  124  A    between atoms: _303  and  _306
REMARK  125  A    between atoms: _306  and  _307
REMARK  126  A    between atoms: _310  and  _312
REMARK  127  A    between atoms: _312  and  _313
REMARK  128  A    between atoms: _312  and  _315
REMARK  129  A    between atoms: _315  and  _316
REMARK  130  A    between atoms: _319  and  _321
REMARK  131  A    between atoms: _321  and  _322
REMARK  132  A    between atoms: _321  and  _324
REMARK  133  A    between atoms: _324  and  _325
REMARK  134  A    between atoms: _327  and  _329
REMARK  135  A    between atoms: _329  and  _330
REMARK  136  A    between atoms: _329  and  _332
REMARK  137  A    between atoms: _332  and  _333
REMARK  138  A    between atoms: _336  and  _338
REMARK  139  A    between atoms: _338  and  _339
REMARK  140  A    between atoms: _338  and  _341
REMARK  141  A    between atoms: _341  and  _342
REMARK  142  A    between atoms: _342  and  _343
REMARK  143  A    between atoms: _348  and  _350
REMARK  144  A    between atoms: _350  and  _351
REMARK  145  A    between atoms: _354  and  _356
REMARK  146  A    between atoms: _356  and  _357
REMARK  147  A    between atoms: _356  and  _359
REMARK  148  A    between atoms: _359  and  _360
REMARK  149  A    between atoms: _365  and  _366
REMARK  150  A    between atoms: _368  and  _370
REMARK  151  A    between atoms: _370  and  _371
REMARK  152  A    between atoms: _370  and  _373
REMARK  153  A    between atoms: _373  and  _374
REMARK  154  A    between atoms: _374  and  _375
REMARK  155  A    between atoms: _380  and  _382
REMARK  156  A    between atoms: _382  and  _383
REMARK  157  A    between atoms: _385  and  _387
REMARK  158  A    between atoms: _387  and  _388
REMARK  159  A    between atoms: _390  and  _392
REMARK  160  A    between atoms: _392  and  _393
REMARK  161  A    between atoms: _392  and  _395
REMARK  162  A    between atoms: _395  and  _396
REMARK  163  A    between atoms: _396  and  _397
REMARK  164  A    between atoms: _397  and  _398
REMARK  165  A    between atoms: _407  and  _409
REMARK  166  A    between atoms: _409  and  _410
REMARK  167  A    between atoms: _409  and  _412
REMARK  168  A    between atoms: _412  and  _413
REMARK  169  A    between atoms: _416  and  _418
REMARK  170  A    between atoms: _418  and  _419
REMARK  171  A    between atoms: _418  and  _421
REMARK  172  A    between atoms: _424  and  _426
REMARK  173  A    between atoms: _426  and  _427
REMARK  174  A    between atoms: _426  and  _429
REMARK  175  A    between atoms: _432  and  _434
REMARK  176  A    between atoms: _434  and  _435
REMARK  177  A    between atoms: _437  and  _439
REMARK  178  A    between atoms: _439  and  _440
REMARK  179  A    between atoms: _439  and  _442
REMARK  180  A    between atoms: _442  and  _443
REMARK  181  A    between atoms: _446  and  _448
REMARK  182  A    between atoms: _448  and  _449
REMARK  183  A    between atoms: _448  and  _451
REMARK  184  A    between atoms: _451  and  _452
REMARK  185  A    between atoms: _452  and  _453
REMARK  186  A    between atoms: _453  and  _454
REMARK  187  A    between atoms: _454  and  _455
REMARK  188  A    between atoms: _459  and  _461
REMARK  189  A    between atoms: _461  and  _462
REMARK  190  A    between atoms: _461  and  _464
REMARK  191  A    between atoms: _464  and  _465
REMARK  192  A    between atoms: _465  and  _466
REMARK  193  A    between atoms: _466  and  _467
REMARK  194  A    between atoms: _476  and  _478
REMARK  195  A    between atoms: _478  and  _479
REMARK  196  A    between atoms: _482  and  _484
REMARK  197  A    between atoms: _484  and  _485
REMARK  198  A    between atoms: _484  and  _487
REMARK  199  A    between atoms: _487  and  _488
REMARK  200  A    between atoms: _488  and  _489
REMARK  201  A    between atoms: _489  and  _490
REMARK  202  A    between atoms: _499  and  _501
REMARK  203  A    between atoms: _501  and  _502
REMARK  204  A    between atoms: _505  and  _507
REMARK  205  A    between atoms: _507  and  _508
REMARK  206  A    between atoms: _507  and  _510
REMARK  207  A    between atoms: _510  and  _511
REMARK  208  A    between atoms: _511  and  _512
REMARK  209  A    between atoms: _512  and  _513
REMARK  210  A    between atoms: _522  and  _524
REMARK  211  A    between atoms: _524  and  _525
REMARK  212  A    between atoms: _527  and  _529
REMARK  213  A    between atoms: _529  and  _530
REMARK  214  A    between atoms: _529  and  _532
REMARK  215  A    between atoms: _532  and  _533
REMARK  216  A    between atoms: _533  and  _534
REMARK  217  A    between atoms: _537  and  _539
REMARK  218  A    between atoms: _539  and  _540
REMARK  219  A    between atoms: _539  and  _542
REMARK  220  A    between atoms: _542  and  _543
REMARK  221  A    between atoms: _546  and  _548
REMARK  222  A    between atoms: _548  and  _549
REMARK  223  A    between atoms: _548  and  _551
REMARK  224  A    between atoms: _551  and  _552
REMARK  225  A    between atoms: _552  and  _553
REMARK  226  A    between atoms: _553  and  _554
REMARK  227  A    between atoms: _563  and  _565
REMARK  228  A    between atoms: _565  and  _566
REMARK  229  A    between atoms: _565  and  _568
REMARK  230  A    between atoms: _568  and  _569
REMARK  231  A    between atoms: _572  and  _574
REMARK  232  A    between atoms: _574  and  _575
REMARK  233  A    between atoms: _574  and  _577
REMARK  234  A    between atoms: _577  and  _578
REMARK  235  A    between atoms: _578  and  _579
REMARK  236  A    between atoms: _582  and  _584
REMARK  237  A    between atoms: _584  and  _585
REMARK  238  A    between atoms: _584  and  _587
REMARK  239  A    between atoms: _587  and  _588
REMARK  240  A    between atoms: _588  and  _589
REMARK  241  A    between atoms: _594  and  _596
REMARK  242  A    between atoms: _596  and  _597
REMARK  243  A    between atoms: _596  and  _599
REMARK  244  A    between atoms: _599  and  _600
REMARK  245  A    between atoms: _600  and  _601
REMARK  246  A    between atoms: _604  and  _606
REMARK  247  A    between atoms: _606  and  _607
REMARK  248  A    between atoms: _606  and  _609
REMARK  249  A    between atoms: _609  and  _610
REMARK  250  A    between atoms: _616  and  _618
REMARK  251  A    between atoms: _618  and  _619
REMARK  252  A    between atoms: _618  and  _621
REMARK  253  A    between atoms: _621  and  _622
REMARK  254  A    between atoms: _628  and  _630
REMARK  255  A    between atoms: _630  and  _631
REMARK  256  A    between atoms: _630  and  _633
REMARK  257  A    between atoms: _633  and  _634
REMARK  258  A    between atoms: _637  and  _639
REMARK  259  A    between atoms: _639  and  _640
REMARK  260  A    between atoms: _639  and  _642
REMARK  261  A    between atoms: _642  and  _643
REMARK  262  A    between atoms: _648  and  _649
REMARK  263  A    between atoms: _651  and  _653
REMARK  264  A    between atoms: _653  and  _654
REMARK  265  A    between atoms: _657  and  _659
REMARK  266  A    between atoms: _659  and  _660
REMARK  267  A    between atoms: _659  and  _662
REMARK  268  A    between atoms: _662  and  _663
REMARK  269  A    between atoms: _663  and  _664
REMARK  270  A    between atoms: _670  and  _671
REMARK  271  A    between atoms: _676  and  _678
REMARK  272  A    between atoms: _678  and  _679
REMARK  273  A    between atoms: _678  and  _681
REMARK  274  A    between atoms: _681  and  _682
REMARK  275  A    between atoms: _685  and  _687
REMARK  276  A    between atoms: _687  and  _688
REMARK  277  A    between atoms: _687  and  _690
REMARK  278  A    between atoms: _690  and  _691
REMARK  279  A    between atoms: _691  and  _692
REMARK  280  A    between atoms: _695  and  _697
REMARK  281  A    between atoms: _697  and  _698
REMARK  282  A    between atoms: _697  and  _700
REMARK  283  A    between atoms: _703  and  _705
REMARK  284  A    between atoms: _705  and  _706
REMARK  285  A    between atoms: _705  and  _708
REMARK  286  A    between atoms: _708  and  _709
REMARK  287  A    between atoms: _709  and  _710
REMARK                            x       y       z     vdW  Elec       q    Type
REMARK                         _______ _______ _______ _____ _____    ______ ____
ROOT
ATOM      1  CG  TYR A   1      32.261 107.429  19.573  0.00  0.00    -0.020 A 
ATOM      2  CD2 TYR A   1      31.039 107.346  20.268  0.00  0.00    -0.001 A 
ATOM      3  CE2 TYR A   1      29.873 106.922  19.626  0.00  0.00    +0.036 A 
ATOM      4  CZ  TYR A   1      29.917 106.579  18.279  0.00  0.00    +0.134 A 
ATOM      5  CE1 TYR A   1      31.115 106.641  17.575  0.00  0.00    +0.036 A 
ATOM      6  CD1 TYR A   1      32.276 107.063  18.222  0.00  0.00    -0.001 A 
ENDROOT
BRANCH   4   7
ATOM      7  OH  TYR A   1      28.770 106.220  17.603  0.00  0.00    -0.506 OA
ATOM      8  HH  TYR A   1      28.995 106.011  16.662  0.00  0.00    +0.292 HD
ENDBRANCH   4   7
BRANCH   1   9
ATOM      9  CB  TYR A   1      33.510 107.999  20.252  0.00  0.00    +0.051 C 
BRANCH   9  10
ATOM     10  CA  TYR A   1      34.826 107.218  20.078  0.00  0.00    +0.137 C 
BRANCH  10  11
ATOM     11  N   TYR A   1      35.119 106.469  21.304  0.00  0.00    -0.239 NA
ATOM     12  H   TYR A   1      34.391 106.410  22.045  0.00  0.00    +0.142 HD
ENDBRANCH  10  11
BRANCH  10  13
ATOM     13  C   TYR A   1      35.980 108.223  19.915  0.00  0.00    +0.224 C 
ATOM     14  O   TYR A   1      36.626 108.315  18.866  0.00  0.00    -0.287 OA
ENDBRANCH  10  13
ENDBRANCH   9  10
ENDBRANCH   1   9
TORSDOF 5
REMARK  Name = ../refined-set-2016/5tmp/5tmp_pocket.pdb
REMARK  287 active torsions:
REMARK  status: ('A' for Active; 'I' for Inactive)
REMARK    1  A    between atoms: _1  and  _3
REMARK    2  A    between atoms: _3  and  _4
REMARK    3  A    between atoms: _3  and  _6
REMARK    4  A    between atoms: _6  and  _7
REMARK    5  A    between atoms: _10  and  _12
REMARK    6  A    between atoms: _12  and  _13
REMARK    7  A    between atoms: _12  and  _15
REMARK    8  A    between atoms: _15  and  _16
REMARK    9  A    between atoms: _16  and  _17
REMARK   10  A    between atoms: _20  and  _22
REMARK   11  A    between atoms: _22  and  _23
REMARK   12  A    between atoms: _25  and  _27
REMARK   13  A    between atoms: _27  and  _28
REMARK   14  A    between atoms: _27  and  _30
REMARK   15  A    between atoms: _30  and  _31
REMARK   16  A    between atoms: _34  and  _36
REMARK   17  A    between atoms: _36  and  _37
REMARK   18  A    between atoms: _36  and  _39
REMARK   19  A    between atoms: _39  and  _40
REMARK   20  A    between atoms: _40  and  _41
REMARK   21  A    between atoms: _44  and  _46
REMARK   22  A    between atoms: _46  and  _47
REMARK   23  A    between atoms: _49  and  _51
REMARK   24  A    between atoms: _51  and  _52
REMARK   25  A    between atoms: _55  and  _57
REMARK   26  A    between atoms: _57  and  _58
REMARK   27  A    between atoms: _60  and  _62
REMARK   28  A    between atoms: _62  and  _63
REMARK   29  A    between atoms: _62  and  _65
REMARK   30  A    between atoms: _65  and  _66
REMARK   31  A    between atoms: _66  and  _67
REMARK   32  A    between atoms: _67  and  _68
REMARK   33  A    between atoms: _68  and  _69
REMARK   34  A    between atoms: _73  and  _75
REMARK   35  A    between atoms: _75  and  _76
REMARK   36  A    between atoms: _75  and  _78
REMARK   37  A    between atoms: _78  and  _79
REMARK   38  A    between atoms: _82  and  _84
REMARK   39  A    between atoms: _84  and  _85
REMARK   40  A    between atoms: _84  and  _87
REMARK   41  A    between atoms: _87  and  _88
REMARK   42  A    between atoms: _91  and  _93
REMARK   43  A    between atoms: _93  and  _94
REMARK   44  A    between atoms: _97  and  _99
REMARK   45  A    between atoms: _99  and  _100
REMARK   46  A    between atoms: _99  and  _102
REMARK   47  A    between atoms: _102  and  _103
REMARK   48  A    between atoms: _103  and  _104
REMARK   49  A    between atoms: _104  and  _105
REMARK   50  A    between atoms: _114  and  _116
REMARK   51  A    between atoms: _116  and  _117
REMARK   52  A    between atoms: _116  and  _119
REMARK   53  A    between atoms: _119  and  _120
REMARK   54  A    between atoms: _120  and  _121
REMARK   55  A    between atoms: _121  and  _122
REMARK   56  A    between atoms: _131  and  _133
REMARK   57  A    between atoms: _133  and  _134
REMARK   58  A    between atoms: _133  and  _136
REMARK   59  A    between atoms: _136  and  _137
REMARK   60  A    between atoms: _137  and  _138
REMARK   61  A    between atoms: _142  and  _143
REMARK   62  A    between atoms: _148  and  _150
REMARK   63  A    between atoms: _150  and  _151
REMARK   64  A    between atoms: _153  and  _155
REMARK   65  A    between atoms: _155  and  _156
REMARK   66  A    between atoms: _155  and  _158
REMARK   67  A    between atoms: _158  and  _159
REMARK   68  A    between atoms: _159  and  _160
REMARK   69  A    between atoms: _160  and  _161
REMARK   70  A    between atoms: _170  and  _172
REMARK   71  A    between atoms: _172  and  _173
REMARK   72  A    between atoms: _172  and  _175
REMARK   73  A    between atoms: _175  and  _176
REMARK   74  A    between atoms: _179  and  _181
REMARK   75  A    between atoms: _181  and  _182
REMARK   76  A    between atoms: _181  and  _184
REMARK   77  A    between atoms: _184  and  _185
REMARK   78  A    between atoms: _188  and  _190
REMARK   79  A    between atoms: _190  and  _191
REMARK   80  A    between atoms: _190  and  _193
REMARK   81  A    between atoms: _193  and  _194
REMARK   82  A    between atoms: _194  and  _195
REMARK   83  A    between atoms: _198  and  _200
REMARK   84  A    between atoms: _200  and  _201
REMARK   85  A    between atoms: _200  and  _203
REMARK   86  A    between atoms: _206  and  _208
REMARK   87  A    between atoms: _208  and  _209
REMARK   88  A    between atoms: _208  and  _211
REMARK   89  A    between atoms: _211  and  _212
REMARK   90  A    between atoms: _212  and  _213
REMARK   91  A    between atoms: _215  and  _217
REMARK   92  A    between atoms: _217  and  _218
REMARK   93  A    between atoms: _217  and  _220
REMARK   94  A    between atoms: _220  and  _221
REMARK   95  A    between atoms: _227  and  _229
REMARK   96  A    between atoms: _229  and  _230
REMARK   97  A    between atoms: _229  and  _232
REMARK   98  A    between atoms: _232  and  _233
REMARK   99  A    between atoms: _238  and  _239
REMARK  100  A    between atoms: _241  and  _243
REMARK  101  A    between atoms: _243  and  _244
REMARK  102  A    between atoms: _247  and  _249
REMARK  103  A    between atoms: _249  and  _250
REMARK  104  A    between atoms: _249  and  _252
REMARK  105  A    between atoms: _252  and  _253
REMARK  106  A    between atoms: _253  and  _254
REMARK  107  A    between atoms: _254  and  _255
REMARK  108  A    between atoms: _264  and  _266
REMARK  109  A    between atoms: _266  and  _267
REMARK  110  A    between atoms: _266  and  _269
REMARK  111  A    between atoms: _269  and  _270
REMARK  112  A    between atoms: _273  and  _275
REMARK  113  A    between atoms: _275  and  _276
REMARK  114  A    between atoms: _275  and  _278
REMARK  115  A    between atoms: _278  and  _279
REMARK  116  A    between atoms: _279  and  _280
REMARK  117  A    between atoms: _280  and  _281
REMARK  118  A    between atoms: _290  and  _292
REMARK  119  A    between atoms: _292  and  _293
REMARK  120  A    between atoms: _292  and  _295
REMARK  121  A    between atoms: _295  and  _296
REMARK  122  A    between atoms: _301  and  _303
REMARK  123  A    between atoms: _303  and  _304
REMARK  124  A    between atoms: _303  and  _306
REMARK  125  A    between atoms: _306  and  _307
REMARK  126  A    between atoms: _310  and  _312
REMARK  127  A    between atoms: _312  and  _313
REMARK  128  A    between atoms: _312  and  _315
REMARK  129  A    between atoms: _315  and  _316
REMARK  130  A    between atoms: _319  and  _321
REMARK  131  A    between atoms: _321  and  _322
REMARK  132  A    between atoms: _321  and  _324
REMARK  133  A    between atoms: _324  and  _325
REMARK  134  A    between atoms: _327  and  _329
REMARK  135  A    between atoms: _329  and  _330
REMARK  136  A    between atoms: _329  and  _332
REMARK  137  A    between atoms: _332  and  _333
REMARK  138  A    between atoms: _336  and  _338
REMARK  139  A    between atoms: _338  and  _339
REMARK  140  A    between atoms: _338  and  _341
REMARK  141  A    between atoms: _341  and  _342
REMARK  142  A    between atoms: _342  and  _343
REMARK  143  A    between atoms: _348  and  _350
REMARK  144  A    between atoms: _350  and  _351
REMARK  145  A    between atoms: _354  and  _356
REMARK  146  A    between atoms: _356  and  _357
REMARK  147  A    between atoms: _356  and  _359
REMARK  148  A    between atoms: _359  and  _360
REMARK  149  A    between atoms: _365  and  _366
REMARK  150  A    between atoms: _368  and  _370
REMARK  151  A    between atoms: _370  and  _371
REMARK  152  A    between atoms: _370  and  _373
REMARK  153  A    between atoms: _373  and  _374
REMARK  154  A    between atoms: _374  and  _375
REMARK  155  A    between atoms: _380  and  _382
REMARK  156  A    between atoms: _382  and  _383
REMARK  157  A    between atoms: _385  and  _387
REMARK  158  A    between atoms: _387  and  _388
REMARK  159  A    between atoms: _390  and  _392
REMARK  160  A    between atoms: _392  and  _393
REMARK  161  A    between atoms: _392  and  _395
REMARK  162  A    between atoms: _395  and  _396
REMARK  163  A    between atoms: _396  and  _397
REMARK  164  A    between atoms: _397  and  _398
REMARK  165  A    between atoms: _407  and  _409
REMARK  166  A    between atoms: _409  and  _410
REMARK  167  A    between atoms: _409  and  _412
REMARK  168  A    between atoms: _412  and  _413
REMARK  169  A    between atoms: _416  and  _418
REMARK  170  A    between atoms: _418  and  _419
REMARK  171  A    between atoms: _418  and  _421
REMARK  172  A    between atoms: _424  and  _426
REMARK  173  A    between atoms: _426  and  _427
REMARK  174  A    between atoms: _426  and  _429
REMARK  175  A    between atoms: _432  and  _434
REMARK  176  A    between atoms: _434  and  _435
REMARK  177  A    between atoms: _437  and  _439
REMARK  178  A    between atoms: _439  and  _440
REMARK  179  A    between atoms: _439  and  _442
REMARK  180  A    between atoms: _442  and  _443
REMARK  181  A    between atoms: _446  and  _448
REMARK  182  A    between atoms: _448  and  _449
REMARK  183  A    between atoms: _448  and  _451
REMARK  184  A    between atoms: _451  and  _452
REMARK  185  A    between atoms: _452  and  _453
REMARK  186  A    between atoms: _453  and  _454
REMARK  187  A    between atoms: _454  and  _455
REMARK  188  A    between atoms: _459  and  _461
REMARK  189  A    between atoms: _461  and  _462
REMARK  190  A    between atoms: _461  and  _464
REMARK  191  A    between atoms: _464  and  _465
REMARK  192  A    between atoms: _465  and  _466
REMARK  193  A    between atoms: _466  and  _467
REMARK  194  A    between atoms: _476  and  _478
REMARK  195  A    between atoms: _478  and  _479
REMARK  196  A    between atoms: _482  and  _484
REMARK  197  A    between atoms: _484  and  _485
REMARK  198  A    between atoms: _484  and  _487
REMARK  199  A    between atoms: _487  and  _488
REMARK  200  A    between atoms: _488  and  _489
REMARK  201  A    between atoms: _489  and  _490
REMARK  202  A    between atoms: _499  and  _501
REMARK  203  A    between atoms: _501  and  _502
REMARK  204  A    between atoms: _505  and  _507
REMARK  205  A    between atoms: _507  and  _508
REMARK  206  A    between atoms: _507  and  _510
REMARK  207  A    between atoms: _510  and  _511
REMARK  208  A    between atoms: _511  and  _512
REMARK  209  A    between atoms: _512  and  _513
REMARK  210  A    between atoms: _522  and  _524
REMARK  211  A    between atoms: _524  and  _525
REMARK  212  A    between atoms: _527  and  _529
REMARK  213  A    between atoms: _529  and  _530
REMARK  214  A    between atoms: _529  and  _532
REMARK  215  A    between atoms: _532  and  _533
REMARK  216  A    between atoms: _533  and  _534
REMARK  217  A    between atoms: _537  and  _539
REMARK  218  A    between atoms: _539  and  _540
REMARK  219  A    between atoms: _539  and  _542
REMARK  220  A    between atoms: _542  and  _543
REMARK  221  A    between atoms: _546  and  _548
REMARK  222  A    between atoms: _548  and  _549
REMARK  223  A    between atoms: _548  and  _551
REMARK  224  A    between atoms: _551  and  _552
REMARK  225  A    between atoms: _552  and  _553
REMARK  226  A    between atoms: _553  and  _554
REMARK  227  A    between atoms: _563  and  _565
REMARK  228  A    between atoms: _565  and  _566
REMARK  229  A    between atoms: _565  and  _568
REMARK  230  A    between atoms: _568  and  _569
REMARK  231  A    between atoms: _572  and  _574
REMARK  232  A    between atoms: _574  and  _575
REMARK  233  A    between atoms: _574  and  _577
REMARK  234  A    between atoms: _577  and  _578
REMARK  235  A    between atoms: _578  and  _579
REMARK  236  A    between atoms: _582  and  _584
REMARK  237  A    between atoms: _584  and  _585
REMARK  238  A    between atoms: _584  and  _587
REMARK  239  A    between atoms: _587  and  _588
REMARK  240  A    between atoms: _588  and  _589
REMARK  241  A    between atoms: _594  and  _596
REMARK  242  A    between atoms: _596  and  _597
REMARK  243  A    between atoms: _596  and  _599
REMARK  244  A    between atoms: _599  and  _600
REMARK  245  A    between atoms: _600  and  _601
REMARK  246  A    between atoms: _604  and  _606
REMARK  247  A    between atoms: _606  and  _607
REMARK  248  A    between atoms: _606  and  _609
REMARK  249  A    between atoms: _609  and  _610
REMARK  250  A    between atoms: _616  and  _618
REMARK  251  A    between atoms: _618  and  _619
REMARK  252  A    between atoms: _618  and  _621
REMARK  253  A    between atoms: _621  and  _622
REMARK  254  A    between atoms: _628  and  _630
REMARK  255  A    between atoms: _630  and  _631
REMARK  256  A    between atoms: _630  and  _633
REMARK  257  A    between atoms: _633  and  _634
REMARK  258  A    between atoms: _637  and  _639
REMARK  259  A    between atoms: _639  and  _640
REMARK  260  A    between atoms: _639  and  _642
REMARK  261  A    between atoms: _642  and  _643
REMARK  262  A    between atoms: _648  and  _649
REMARK  263  A    between atoms: _651  and  _653
REMARK  264  A    between atoms: _653  and  _654
REMARK  265  A    between atoms: _657  and  _659
REMARK  266  A    between atoms: _659  and  _660
REMARK  267  A    between atoms: _659  and  _662
REMARK  268  A    between atoms: _662  and  _663
REMARK  269  A    between atoms: _663  and  _664
REMARK  270  A    between atoms: _670  and  _671
REMARK  271  A    between atoms: _676  and  _678
REMARK  272  A    between atoms: _678  and  _679
REMARK  273  A    between atoms: _678  and  _681
REMARK  274  A    between atoms: _681  and  _682
REMARK  275  A    between atoms: _685  and  _687
REMARK  276  A    between atoms: _687  and  _688
REMARK  277  A    between atoms: _687  and  _690
REMARK  278  A    between atoms: _690  and  _691
REMARK  279  A    between atoms: _691  and  _692
REMARK  280  A    between atoms: _695  and  _697
REMARK  281  A    between atoms: _697  and  _698
REMARK  282  A    between atoms: _697  and  _700
REMARK  283  A    between atoms: _703  and  _705
REMARK  284  A    between atoms: _705  and  _706
REMARK  285  A    between atoms: _705  and  _708
REMARK  286  A    between atoms: _708  and  _709
REMARK  287  A    between atoms: _709  and  _710
REMARK                            x       y       z     vdW  Elec       q    Type
REMARK                         _______ _______ _______ _____ _____    ______ ____
ROOT
ATOM      1  CA  ALA A   1      28.240 118.888  19.720  0.00  0.00    +0.133 C 
ATOM      2  CB  ALA A   1      27.620 117.580  19.223  0.00  0.00    +0.027 C 
ENDROOT
BRANCH   1   3
ATOM      3  N   ALA A   1      29.692 118.772  19.734  0.00  0.00    -0.239 NA
ATOM      4  H   ALA A   1      30.120 117.840  19.904  0.00  0.00    +0.142 HD
ENDBRANCH   1   3
BRANCH   1   5
ATOM      5  C   ALA A   1      27.633 119.288  21.073  0.00  0.00    +0.224 C 
ATOM      6  O   ALA A   1      26.428 119.110  21.293  0.00  0.00    -0.287 OA
ENDBRANCH   1   5
TORSDOF 2
REMARK  Name = ../refined-set-2016/5tmp/5tmp_pocket.pdb
REMARK  287 active torsions:
REMARK  status: ('A' for Active; 'I' for Inactive)
REMARK    1  A    between atoms: _1  and  _3
REMARK    2  A    between atoms: _3  and  _4
REMARK    3  A    between atoms: _3  and  _6
REMARK    4  A    between atoms: _6  and  _7
REMARK    5  A    between atoms: _10  and  _12
REMARK    6  A    between atoms: _12  and  _13
REMARK    7  A    between atoms: _12  and  _15
REMARK    8  A    between atoms: _15  and  _16
REMARK    9  A    between atoms: _16  and  _17
REMARK   10  A    between atoms: _20  and  _22
REMARK   11  A    between atoms: _22  and  _23
REMARK   12  A    between atoms: _25  and  _27
REMARK   13  A    between atoms: _27  and  _28
REMARK   14  A    between atoms: _27  and  _30
REMARK   15  A    between atoms: _30  and  _31
REMARK   16  A    between atoms: _34  and  _36
REMARK   17  A    between atoms: _36  and  _37
REMARK   18  A    between atoms: _36  and  _39
REMARK   19  A    between atoms: _39  and  _40
REMARK   20  A    between atoms: _40  and  _41
REMARK   21  A    between atoms: _44  and  _46
REMARK   22  A    between atoms: _46  and  _47
REMARK   23  A    between atoms: _49  and  _51
REMARK   24  A    between atoms: _51  and  _52
REMARK   25  A    between atoms: _55  and  _57
REMARK   26  A    between atoms: _57  and  _58
REMARK   27  A    between atoms: _60  and  _62
REMARK   28  A    between atoms: _62  and  _63
REMARK   29  A    between atoms: _62  and  _65
REMARK   30  A    between atoms: _65  and  _66
REMARK   31  A    between atoms: _66  and  _67
REMARK   32  A    between atoms: _67  and  _68
REMARK   33  A    between atoms: _68  and  _69
REMARK   34  A    between atoms: _73  and  _75
REMARK   35  A    between atoms: _75  and  _76
REMARK   36  A    between atoms: _75  and  _78
REMARK   37  A    between atoms: _78  and  _79
REMARK   38  A    between atoms: _82  and  _84
REMARK   39  A    between atoms: _84  and  _85
REMARK   40  A    between atoms: _84  and  _87
REMARK   41  A    between atoms: _87  and  _88
REMARK   42  A    between atoms: _91  and  _93
REMARK   43  A    between atoms: _93  and  _94
REMARK   44  A    between atoms: _97  and  _99
REMARK   45  A    between atoms: _99  and  _100
REMARK   46  A    between atoms: _99  and  _102
REMARK   47  A    between atoms: _102  and  _103
REMARK   48  A    between atoms: _103  and  _104
REMARK   49  A    between atoms: _104  and  _105
REMARK   50  A    between atoms: _114  and  _116
REMARK   51  A    between atoms: _116  and  _117
REMARK   52  A    between atoms: _116  and  _119
REMARK   53  A    between atoms: _119  and  _120
REMARK   54  A    between atoms: _120  and  _121
REMARK   55  A    between atoms: _121  and  _122
REMARK   56  A    between atoms: _131  and  _133
REMARK   57  A    between atoms: _133  and  _134
REMARK   58  A    between atoms: _133  and  _136
REMARK   59  A    between atoms: _136  and  _137
REMARK   60  A    between atoms: _137  and  _138
REMARK   61  A    between atoms: _142  and  _143
REMARK   62  A    between atoms: _148  and  _150
REMARK   63  A    between atoms: _150  and  _151
REMARK   64  A    between atoms: _153  and  _155
REMARK   65  A    between atoms: _155  and  _156
REMARK   66  A    between atoms: _155  and  _158
REMARK   67  A    between atoms: _158  and  _159
REMARK   68  A    between atoms: _159  and  _160
REMARK   69  A    between atoms: _160  and  _161
REMARK   70  A    between atoms: _170  and  _172
REMARK   71  A    between atoms: _172  and  _173
REMARK   72  A    between atoms: _172  and  _175
REMARK   73  A    between atoms: _175  and  _176
REMARK   74  A    between atoms: _179  and  _181
REMARK   75  A    between atoms: _181  and  _182
REMARK   76  A    between atoms: _181  and  _184
REMARK   77  A    between atoms: _184  and  _185
REMARK   78  A    between atoms: _188  and  _190
REMARK   79  A    between atoms: _190  and  _191
REMARK   80  A    between atoms: _190  and  _193
REMARK   81  A    between atoms: _193  and  _194
REMARK   82  A    between atoms: _194  and  _195
REMARK   83  A    between atoms: _198  and  _200
REMARK   84  A    between atoms: _200  and  _201
REMARK   85  A    between atoms: _200  and  _203
REMARK   86  A    between atoms: _206  and  _208
REMARK   87  A    between atoms: _208  and  _209
REMARK   88  A    between atoms: _208  and  _211
REMARK   89  A    between atoms: _211  and  _212
REMARK   90  A    between atoms: _212  and  _213
REMARK   91  A    between atoms: _215  and  _217
REMARK   92  A    between atoms: _217  and  _218
REMARK   93  A    between atoms: _217  and  _220
REMARK   94  A    between atoms: _220  and  _221
REMARK   95  A    between atoms: _227  and  _229
REMARK   96  A    between atoms: _229  and  _230
REMARK   97  A    between atoms: _229  and  _232
REMARK   98  A    between atoms: _232  and  _233
REMARK   99  A    between atoms: _238  and  _239
REMARK  100  A    between atoms: _241  and  _243
REMARK  101  A    between atoms: _243  and  _244
REMARK  102  A    between atoms: _247  and  _249
REMARK  103  A    between atoms: _249  and  _250
REMARK  104  A    between atoms: _249  and  _252
REMARK  105  A    between atoms: _252  and  _253
REMARK  106  A    between atoms: _253  and  _254
REMARK  107  A    between atoms: _254  and  _255
REMARK  108  A    between atoms: _264  and  _266
REMARK  109  A    between atoms: _266  and  _267
REMARK  110  A    between atoms: _266  and  _269
REMARK  111  A    between atoms: _269  and  _270
REMARK  112  A    between atoms: _273  and  _275
REMARK  113  A    between atoms: _275  and  _276
REMARK  114  A    between atoms: _275  and  _278
REMARK  115  A    between atoms: _278  and  _279
REMARK  116  A    between atoms: _279  and  _280
REMARK  117  A    between atoms: _280  and  _281
REMARK  118  A    between atoms: _290  and  _292
REMARK  119  A    between atoms: _292  and  _293
REMARK  120  A    between atoms: _292  and  _295
REMARK  121  A    between atoms: _295  and  _296
REMARK  122  A    between atoms: _301  and  _303
REMARK  123  A    between atoms: _303  and  _304
REMARK  124  A    between atoms: _303  and  _306
REMARK  125  A    between atoms: _306  and  _307
REMARK  126  A    between atoms: _310  and  _312
REMARK  127  A    between atoms: _312  and  _313
REMARK  128  A    between atoms: _312  and  _315
REMARK  129  A    between atoms: _315  and  _316
REMARK  130  A    between atoms: _319  and  _321
REMARK  131  A    between atoms: _321  and  _322
REMARK  132  A    between atoms: _321  and  _324
REMARK  133  A    between atoms: _324  and  _325
REMARK  134  A    between atoms: _327  and  _329
REMARK  135  A    between atoms: _329  and  _330
REMARK  136  A    between atoms: _329  and  _332
REMARK  137  A    between atoms: _332  and  _333
REMARK  138  A    between atoms: _336  and  _338
REMARK  139  A    between atoms: _338  and  _339
REMARK  140  A    between atoms: _338  and  _341
REMARK  141  A    between atoms: _341  and  _342
REMARK  142  A    between atoms: _342  and  _343
REMARK  143  A    between atoms: _348  and  _350
REMARK  144  A    between atoms: _350  and  _351
REMARK  145  A    between atoms: _354  and  _356
REMARK  146  A    between atoms: _356  and  _357
REMARK  147  A    between atoms: _356  and  _359
REMARK  148  A    between atoms: _359  and  _360
REMARK  149  A    between atoms: _365  and  _366
REMARK  150  A    between atoms: _368  and  _370
REMARK  151  A    between atoms: _370  and  _371
REMARK  152  A    between atoms: _370  and  _373
REMARK  153  A    between atoms: _373  and  _374
REMARK  154  A    between atoms: _374  and  _375
REMARK  155  A    between atoms: _380  and  _382
REMARK  156  A    between atoms: _382  and  _383
REMARK  157  A    between atoms: _385  and  _387
REMARK  158  A    between atoms: _387  and  _388
REMARK  159  A    between atoms: _390  and  _392
REMARK  160  A    between atoms: _392  and  _393
REMARK  161  A    between atoms: _392  and  _395
REMARK  162  A    between atoms: _395  and  _396
REMARK  163  A    between atoms: _396  and  _397
REMARK  164  A    between atoms: _397  and  _398
REMARK  165  A    between atoms: _407  and  _409
REMARK  166  A    between atoms: _409  and  _410
REMARK  167  A    between atoms: _409  and  _412
REMARK  168  A    between atoms: _412  and  _413
REMARK  169  A    between atoms: _416  and  _418
REMARK  170  A    between atoms: _418  and  _419
REMARK  171  A    between atoms: _418  and  _421
REMARK  172  A    between atoms: _424  and  _426
REMARK  173  A    between atoms: _426  and  _427
REMARK  174  A    between atoms: _426  and  _429
REMARK  175  A    between atoms: _432  and  _434
REMARK  176  A    between atoms: _434  and  _435
REMARK  177  A    between atoms: _437  and  _439
REMARK  178  A    between atoms: _439  and  _440
REMARK  179  A    between atoms: _439  and  _442
REMARK  180  A    between atoms: _442  and  _443
REMARK  181  A    between atoms: _446  and  _448
REMARK  182  A    between atoms: _448  and  _449
REMARK  183  A    between atoms: _448  and  _451
REMARK  184  A    between atoms: _451  and  _452
REMARK  185  A    between atoms: _452  and  _453
REMARK  186  A    between atoms: _453  and  _454
REMARK  187  A    between atoms: _454  and  _455
REMARK  188  A    between atoms: _459  and  _461
REMARK  189  A    between atoms: _461  and  _462
REMARK  190  A    between atoms: _461  and  _464
REMARK  191  A    between atoms: _464  and  _465
REMARK  192  A    between atoms: _465  and  _466
REMARK  193  A    between atoms: _466  and  _467
REMARK  194  A    between atoms: _476  and  _478
REMARK  195  A    between atoms: _478  and  _479
REMARK  196  A    between atoms: _482  and  _484
REMARK  197  A    between atoms: _484  and  _485
REMARK  198  A    between atoms: _484  and  _487
REMARK  199  A    between atoms: _487  and  _488
REMARK  200  A    between atoms: _488  and  _489
REMARK  201  A    between atoms: _489  and  _490
REMARK  202  A    between atoms: _499  and  _501
REMARK  203  A    between atoms: _501  and  _502
REMARK  204  A    between atoms: _505  and  _507
REMARK  205  A    between atoms: _507  and  _508
REMARK  206  A    between atoms: _507  and  _510
REMARK  207  A    between atoms: _510  and  _511
REMARK  208  A    between atoms: _511  and  _512
REMARK  209  A    between atoms: _512  and  _513
REMARK  210  A    between atoms: _522  and  _524
REMARK  211  A    between atoms: _524  and  _525
REMARK  212  A    between atoms: _527  and  _529
REMARK  213  A    between atoms: _529  and  _530
REMARK  214  A    between atoms: _529  and  _532
REMARK  215  A    between atoms: _532  and  _533
REMARK  216  A    between atoms: _533  and  _534
REMARK  217  A    between atoms: _537  and  _539
REMARK  218  A    between atoms: _539  and  _540
REMARK  219  A    between atoms: _539  and  _542
REMARK  220  A    between atoms: _542  and  _543
REMARK  221  A    between atoms: _546  and  _548
REMARK  222  A    between atoms: _548  and  _549
REMARK  223  A    between atoms: _548  and  _551
REMARK  224  A    between atoms: _551  and  _552
REMARK  225  A    between atoms: _552  and  _553
REMARK  226  A    between atoms: _553  and  _554
REMARK  227  A    between atoms: _563  and  _565
REMARK  228  A    between atoms: _565  and  _566
REMARK  229  A    between atoms: _565  and  _568
REMARK  230  A    between atoms: _568  and  _569
REMARK  231  A    between atoms: _572  and  _574
REMARK  232  A    between atoms: _574  and  _575
REMARK  233  A    between atoms: _574  and  _577
REMARK  234  A    between atoms: _577  and  _578
REMARK  235  A    between atoms: _578  and  _579
REMARK  236  A    between atoms: _582  and  _584
REMARK  237  A    between atoms: _584  and  _585
REMARK  238  A    between atoms: _584  and  _587
REMARK  239  A    between atoms: _587  and  _588
REMARK  240  A    between atoms: _588  and  _589
REMARK  241  A    between atoms: _594  and  _596
REMARK  242  A    between atoms: _596  and  _597
REMARK  243  A    between atoms: _596  and  _599
REMARK  244  A    between atoms: _599  and  _600
REMARK  245  A    between atoms: _600  and  _601
REMARK  246  A    between atoms: _604  and  _606
REMARK  247  A    between atoms: _606  and  _607
REMARK  248  A    between atoms: _606  and  _609
REMARK  249  A    between atoms: _609  and  _610
REMARK  250  A    between atoms: _616  and  _618
REMARK  251  A    between atoms: _618  and  _619
REMARK  252  A    between atoms: _618  and  _621
REMARK  253  A    between atoms: _621  and  _622
REMARK  254  A    between atoms: _628  and  _630
REMARK  255  A    between atoms: _630  and  _631
REMARK  256  A    between atoms: _630  and  _633
REMARK  257  A    between atoms: _633  and  _634
REMARK  258  A    between atoms: _637  and  _639
REMARK  259  A    between atoms: _639  and  _640
REMARK  260  A    between atoms: _639  and  _642
REMARK  261  A    between atoms: _642  and  _643
REMARK  262  A    between atoms: _648  and  _649
REMARK  263  A    between atoms: _651  and  _653
REMARK  264  A    between atoms: _653  and  _654
REMARK  265  A    between atoms: _657  and  _659
REMARK  266  A    between atoms: _659  and  _660
REMARK  267  A    between atoms: _659  and  _662
REMARK  268  A    between atoms: _662  and  _663
REMARK  269  A    between atoms: _663  and  _664
REMARK  270  A    between atoms: _670  and  _671
REMARK  271  A    between atoms: _676  and  _678
REMARK  272  A    between atoms: _678  and  _679
REMARK  273  A    between atoms: _678  and  _681
REMARK  274  A    between atoms: _681  and  _682
REMARK  275  A    between atoms: _685  and  _687
REMARK  276  A    between atoms: _687  and  _688
REMARK  277  A    between atoms: _687  and  _690
REMARK  278  A    between atoms: _690  and  _691
REMARK  279  A    between atoms: _691  and  _692
REMARK  280  A    between atoms: _695  and  _697
REMARK  281  A    between atoms: _697  and  _698
REMARK  282  A    between atoms: _697  and  _700
REMARK  283  A    between atoms: _703  and  _705
REMARK  284  A    between atoms: _705  and  _706
REMARK  285  A    between atoms: _705  and  _708
REMARK  286  A    between atoms: _708  and  _709
REMARK  287  A    between atoms: _709  and  _710
REMARK                            x       y       z     vdW  Elec       q    Type
REMARK                         _______ _______ _______ _____ _____    ______ ____
ROOT
ATOM      1  C   PRO A   2      24.715 125.255  19.061  0.00  0.00    +0.241 C 
ATOM      2  N   LEU A   3      23.492 124.991  18.625  0.00  0.00    -0.297 N 
ATOM      3  H   LEU A   3      22.688 125.137  19.269  0.00  0.00    +0.150 HD
ATOM      4  O   PRO A   2      25.722 125.161  18.356  0.00  0.00    -0.273 OA
ENDROOT
BRANCH   1  10
ATOM      5  C   GLN A   1      26.503 124.088  21.127  0.00  0.00    +0.241 C 
ATOM      6  N   PRO A   2      26.085 125.363  21.137  0.00  0.00    -0.272 N 
ATOM      7  CD  PRO A   2      26.732 126.540  21.745  0.00  0.00    +0.094 C 
ATOM      8  CG  PRO A   2      25.599 127.518  21.843  0.00  0.00    +0.024 C 
ATOM      9  CB  PRO A   2      24.707 127.218  20.663  0.00  0.00    +0.031 C 
ATOM     10  CA  PRO A   2      24.798 125.702  20.513  0.00  0.00    +0.152 C 
ATOM     11  O   GLN A   1      25.824 123.201  20.634  0.00  0.00    -0.273 OA
BRANCH   5  12
ATOM     12  CA  GLN A   1      27.853 123.769  21.781  0.00  0.00    +0.145 C 
BRANCH  12  13
ATOM     13  N   GLN A   1      27.961 122.341  22.009  0.00  0.00    -0.238 NA
ATOM     14  H   GLN A   1      28.157 121.718  21.200  0.00  0.00    +0.142 HD
ENDBRANCH  12  13
BRANCH  12  15
ATOM     15  CB  GLN A   1      29.012 124.238  20.877  0.00  0.00    +0.036 C 
BRANCH  15  16
ATOM     16  CG  GLN A   1      30.433 123.976  21.449  0.00  0.00    +0.087 C 
BRANCH  16  17
ATOM     17  CD  GLN A   1      30.630 124.480  22.888  0.00  0.00    +0.219 C 
ATOM     18  NE2 GLN A   1      31.204 123.632  23.752  0.00  0.00    -0.329 N 
ATOM     19 HE21 GLN A   1      31.363 123.922  24.738  0.00  0.00    +0.145 HD
ATOM     20 HE22 GLN A   1      31.491 122.683  23.437  0.00  0.00    +0.145 HD
ATOM     21  OE1 GLN A   1      30.273 125.614  23.214  0.00  0.00    -0.275 OA
ENDBRANCH  16  17
ENDBRANCH  15  16
ENDBRANCH  12  15
ENDBRANCH   5  12
ENDBRANCH   1  10
BRANCH   2  22
ATOM     22  CA  LEU A   3      23.233 124.507  17.286  0.00  0.00    +0.149 C 
BRANCH  22  23
ATOM     23  C   LEU A   3      23.962 125.233  16.194  0.00  0.00    +0.241 C 
ATOM     24  N   GLU A   4      23.886 126.553  16.210  0.00  0.00    -0.298 N 
ATOM     25  H   GLU A   4      23.364 127.034  16.970  0.00  0.00    +0.150 HD
ATOM     26  O   LEU A   3      24.582 124.611  15.339  0.00  0.00    -0.273 OA
BRANCH  24  27
ATOM     27  CA  GLU A   4      24.532 127.332  15.166  0.00  0.00    +0.137 C 
BRANCH  27  28
ATOM     28  C   GLU A   4      26.048 127.129  15.131  0.00  0.00    +0.227 C 
ATOM     29  O   GLU A   4      26.643 127.082  14.056  0.00  0.00    -0.286 OA
ENDBRANCH  27  28
BRANCH  27  30
ATOM     30  CB  GLU A   4      24.169 128.809  15.329  0.00  0.00    +0.039 C 
BRANCH  30  31
ATOM     31  CG  GLU A   4      22.698 129.112  14.977  0.00  0.00    +0.116 C 
BRANCH  31  32
ATOM     32  CD  GLU A   4      21.797 129.197  16.214  0.00  0.00    +0.365 C 
ATOM     33  OE2 GLU A   4      22.124 128.535  17.238  0.00  0.00    -0.246 OA
ATOM     34  OE1 GLU A   4      20.773 129.930  16.155  0.00  0.00    -0.246 OA
ENDBRANCH  31  32
ENDBRANCH  30  31
ENDBRANCH  27  30
ENDBRANCH  24  27
ENDBRANCH  22  23
BRANCH  22  35
ATOM     35  CB  LEU A   3      21.741 124.551  16.995  0.00  0.00    +0.029 C 
BRANCH  35  36
ATOM     36  CG  LEU A   3      20.980 123.307  17.433  0.00  0.00    +0.002 C 
ATOM     37  CD2 LEU A   3      19.583 123.691  17.896  0.00  0.00    +0.000 C 
ATOM     38  CD1 LEU A   3      20.940 122.329  16.274  0.00  0.00    +0.000 C 
ENDBRANCH  35  36
ENDBRANCH  22  35
ENDBRANCH   2  22
TORSDOF 15
REMARK  Name = ../refined-set-2016/5tmp/5tmp_pocket.pdb
REMARK  287 active torsions:
REMARK  status: ('A' for Active; 'I' for Inactive)
REMARK    1  A    between atoms: _1  and  _3
REMARK    2  A    between atoms: _3  and  _4
REMARK    3  A    between atoms: _3  and  _6
REMARK    4  A    between atoms: _6  and  _7
REMARK    5  A    between atoms: _10  and  _12
REMARK    6  A    between atoms: _12  and  _13
REMARK    7  A    between atoms: _12  and  _15
REMARK    8  A    between atoms: _15  and  _16
REMARK    9  A    between atoms: _16  and  _17
REMARK   10  A    between atoms: _20  and  _22
REMARK   11  A    between atoms: _22  and  _23
REMARK   12  A    between atoms: _25  and  _27
REMARK   13  A    between atoms: _27  and  _28
REMARK   14  A    between atoms: _27  and  _30
REMARK   15  A    between atoms: _30  and  _31
REMARK   16  A    between atoms: _34  and  _36
REMARK   17  A    between atoms: _36  and  _37
REMARK   18  A    between atoms: _36  and  _39
REMARK   19  A    between atoms: _39  and  _40
REMARK   20  A    between atoms: _40  and  _41
REMARK   21  A    between atoms: _44  and  _46
REMARK   22  A    between atoms: _46  and  _47
REMARK   23  A    between atoms: _49  and  _51
REMARK   24  A    between atoms: _51  and  _52
REMARK   25  A    between atoms: _55  and  _57
REMARK   26  A    between atoms: _57  and  _58
REMARK   27  A    between atoms: _60  and  _62
REMARK   28  A    between atoms: _62  and  _63
REMARK   29  A    between atoms: _62  and  _65
REMARK   30  A    between atoms: _65  and  _66
REMARK   31  A    between atoms: _66  and  _67
REMARK   32  A    between atoms: _67  and  _68
REMARK   33  A    between atoms: _68  and  _69
REMARK   34  A    between atoms: _73  and  _75
REMARK   35  A    between atoms: _75  and  _76
REMARK   36  A    between atoms: _75  and  _78
REMARK   37  A    between atoms: _78  and  _79
REMARK   38  A    between atoms: _82  and  _84
REMARK   39  A    between atoms: _84  and  _85
REMARK   40  A    between atoms: _84  and  _87
REMARK   41  A    between atoms: _87  and  _88
REMARK   42  A    between atoms: _91  and  _93
REMARK   43  A    between atoms: _93  and  _94
REMARK   44  A    between atoms: _97  and  _99
REMARK   45  A    between atoms: _99  and  _100
REMARK   46  A    between atoms: _99  and  _102
REMARK   47  A    between atoms: _102  and  _103
REMARK   48  A    between atoms: _103  and  _104
REMARK   49  A    between atoms: _104  and  _105
REMARK   50  A    between atoms: _114  and  _116
REMARK   51  A    between atoms: _116  and  _117
REMARK   52  A    between atoms: _116  and  _119
REMARK   53  A    between atoms: _119  and  _120
REMARK   54  A    between atoms: _120  and  _121
REMARK   55  A    between atoms: _121  and  _122
REMARK   56  A    between atoms: _131  and  _133
REMARK   57  A    between atoms: _133  and  _134
REMARK   58  A    between atoms: _133  and  _136
REMARK   59  A    between atoms: _136  and  _137
REMARK   60  A    between atoms: _137  and  _138
REMARK   61  A    between atoms: _142  and  _143
REMARK   62  A    between atoms: _148  and  _150
REMARK   63  A    between atoms: _150  and  _151
REMARK   64  A    between atoms: _153  and  _155
REMARK   65  A    between atoms: _155  and  _156
REMARK   66  A    between atoms: _155  and  _158
REMARK   67  A    between atoms: _158  and  _159
REMARK   68  A    between atoms: _159  and  _160
REMARK   69  A    between atoms: _160  and  _161
REMARK   70  A    between atoms: _170  and  _172
REMARK   71  A    between atoms: _172  and  _173
REMARK   72  A    between atoms: _172  and  _175
REMARK   73  A    between atoms: _175  and  _176
REMARK   74  A    between atoms: _179  and  _181
REMARK   75  A    between atoms: _181  and  _182
REMARK   76  A    between atoms: _181  and  _184
REMARK   77  A    between atoms: _184  and  _185
REMARK   78  A    between atoms: _188  and  _190
REMARK   79  A    between atoms: _190  and  _191
REMARK   80  A    between atoms: _190  and  _193
REMARK   81  A    between atoms: _193  and  _194
REMARK   82  A    between atoms: _194  and  _195
REMARK   83  A    between atoms: _198  and  _200
REMARK   84  A    between atoms: _200  and  _201
REMARK   85  A    between atoms: _200  and  _203
REMARK   86  A    between atoms: _206  and  _208
REMARK   87  A    between atoms: _208  and  _209
REMARK   88  A    between atoms: _208  and  _211
REMARK   89  A    between atoms: _211  and  _212
REMARK   90  A    between atoms: _212  and  _213
REMARK   91  A    between atoms: _215  and  _217
REMARK   92  A    between atoms: _217  and  _218
REMARK   93  A    between atoms: _217  and  _220
REMARK   94  A    between atoms: _220  and  _221
REMARK   95  A    between atoms: _227  and  _229
REMARK   96  A    between atoms: _229  and  _230
REMARK   97  A    between atoms: _229  and  _232
REMARK   98  A    between atoms: _232  and  _233
REMARK   99  A    between atoms: _238  and  _239
REMARK  100  A    between atoms: _241  and  _243
REMARK  101  A    between atoms: _243  and  _244
REMARK  102  A    between atoms: _247  and  _249
REMARK  103  A    between atoms: _249  and  _250
REMARK  104  A    between atoms: _249  and  _252
REMARK  105  A    between atoms: _252  and  _253
REMARK  106  A    between atoms: _253  and  _254
REMARK  107  A    between atoms: _254  and  _255
REMARK  108  A    between atoms: _264  and  _266
REMARK  109  A    between atoms: _266  and  _267
REMARK  110  A    between atoms: _266  and  _269
REMARK  111  A    between atoms: _269  and  _270
REMARK  112  A    between atoms: _273  and  _275
REMARK  113  A    between atoms: _275  and  _276
REMARK  114  A    between atoms: _275  and  _278
REMARK  115  A    between atoms: _278  and  _279
REMARK  116  A    between atoms: _279  and  _280
REMARK  117  A    between atoms: _280  and  _281
REMARK  118  A    between atoms: _290  and  _292
REMARK  119  A    between atoms: _292  and  _293
REMARK  120  A    between atoms: _292  and  _295
REMARK  121  A    between atoms: _295  and  _296
REMARK  122  A    between atoms: _301  and  _303
REMARK  123  A    between atoms: _303  and  _304
REMARK  124  A    between atoms: _303  and  _306
REMARK  125  A    between atoms: _306  and  _307
REMARK  126  A    between atoms: _310  and  _312
REMARK  127  A    between atoms: _312  and  _313
REMARK  128  A    between atoms: _312  and  _315
REMARK  129  A    between atoms: _315  and  _316
REMARK  130  A    between atoms: _319  and  _321
REMARK  131  A    between atoms: _321  and  _322
REMARK  132  A    between atoms: _321  and  _324
REMARK  133  A    between atoms: _324  and  _325
REMARK  134  A    between atoms: _327  and  _329
REMARK  135  A    between atoms: _329  and  _330
REMARK  136  A    between atoms: _329  and  _332
REMARK  137  A    between atoms: _332  and  _333
REMARK  138  A    between atoms: _336  and  _338
REMARK  139  A    between atoms: _338  and  _339
REMARK  140  A    between atoms: _338  and  _341
REMARK  141  A    between atoms: _341  and  _342
REMARK  142  A    between atoms: _342  and  _343
REMARK  143  A    between atoms: _348  and  _350
REMARK  144  A    between atoms: _350  and  _351
REMARK  145  A    between atoms: _354  and  _356
REMARK  146  A    between atoms: _356  and  _357
REMARK  147  A    between atoms: _356  and  _359
REMARK  148  A    between atoms: _359  and  _360
REMARK  149  A    between atoms: _365  and  _366
REMARK  150  A    between atoms: _368  and  _370
REMARK  151  A    between atoms: _370  and  _371
REMARK  152  A    between atoms: _370  and  _373
REMARK  153  A    between atoms: _373  and  _374
REMARK  154  A    between atoms: _374  and  _375
REMARK  155  A    between atoms: _380  and  _382
REMARK  156  A    between atoms: _382  and  _383
REMARK  157  A    between atoms: _385  and  _387
REMARK  158  A    between atoms: _387  and  _388
REMARK  159  A    between atoms: _390  and  _392
REMARK  160  A    between atoms: _392  and  _393
REMARK  161  A    between atoms: _392  and  _395
REMARK  162  A    between atoms: _395  and  _396
REMARK  163  A    between atoms: _396  and  _397
REMARK  164  A    between atoms: _397  and  _398
REMARK  165  A    between atoms: _407  and  _409
REMARK  166  A    between atoms: _409  and  _410
REMARK  167  A    between atoms: _409  and  _412
REMARK  168  A    between atoms: _412  and  _413
REMARK  169  A    between atoms: _416  and  _418
REMARK  170  A    between atoms: _418  and  _419
REMARK  171  A    between atoms: _418  and  _421
REMARK  172  A    between atoms: _424  and  _426
REMARK  173  A    between atoms: _426  and  _427
REMARK  174  A    between atoms: _426  and  _429
REMARK  175  A    between atoms: _432  and  _434
REMARK  176  A    between atoms: _434  and  _435
REMARK  177  A    between atoms: _437  and  _439
REMARK  178  A    between atoms: _439  and  _440
REMARK  179  A    between atoms: _439  and  _442
REMARK  180  A    between atoms: _442  and  _443
REMARK  181  A    between atoms: _446  and  _448
REMARK  182  A    between atoms: _448  and  _449
REMARK  183  A    between atoms: _448  and  _451
REMARK  184  A    between atoms: _451  and  _452
REMARK  185  A    between atoms: _452  and  _453
REMARK  186  A    between atoms: _453  and  _454
REMARK  187  A    between atoms: _454  and  _455
REMARK  188  A    between atoms: _459  and  _461
REMARK  189  A    between atoms: _461  and  _462
REMARK  190  A    between atoms: _461  and  _464
REMARK  191  A    between atoms: _464  and  _465
REMARK  192  A    between atoms: _465  and  _466
REMARK  193  A    between atoms: _466  and  _467
REMARK  194  A    between atoms: _476  and  _478
REMARK  195  A    between atoms: _478  and  _479
REMARK  196  A    between atoms: _482  and  _484
REMARK  197  A    between atoms: _484  and  _485
REMARK  198  A    between atoms: _484  and  _487
REMARK  199  A    between atoms: _487  and  _488
REMARK  200  A    between atoms: _488  and  _489
REMARK  201  A    between atoms: _489  and  _490
REMARK  202  A    between atoms: _499  and  _501
REMARK  203  A    between atoms: _501  and  _502
REMARK  204  A    between atoms: _505  and  _507
REMARK  205  A    between atoms: _507  and  _508
REMARK  206  A    between atoms: _507  and  _510
REMARK  207  A    between atoms: _510  and  _511
REMARK  208  A    between atoms: _511  and  _512
REMARK  209  A    between atoms: _512  and  _513
REMARK  210  A    between atoms: _522  and  _524
REMARK  211  A    between atoms: _524  and  _525
REMARK  212  A    between atoms: _527  and  _529
REMARK  213  A    between atoms: _529  and  _530
REMARK  214  A    between atoms: _529  and  _532
REMARK  215  A    between atoms: _532  and  _533
REMARK  216  A    between atoms: _533  and  _534
REMARK  217  A    between atoms: _537  and  _539
REMARK  218  A    between atoms: _539  and  _540
REMARK  219  A    between atoms: _539  and  _542
REMARK  220  A    between atoms: _542  and  _543
REMARK  221  A    between atoms: _546  and  _548
REMARK  222  A    between atoms: _548  and  _549
REMARK  223  A    between atoms: _548  and  _551
REMARK  224  A    between atoms: _551  and  _552
REMARK  225  A    between atoms: _552  and  _553
REMARK  226  A    between atoms: _553  and  _554
REMARK  227  A    between atoms: _563  and  _565
REMARK  228  A    between atoms: _565  and  _566
REMARK  229  A    between atoms: _565  and  _568
REMARK  230  A    between atoms: _568  and  _569
REMARK  231  A    between atoms: _572  and  _574
REMARK  232  A    between atoms: _574  and  _575
REMARK  233  A    between atoms: _574  and  _577
REMARK  234  A    between atoms: _577  and  _578
REMARK  235  A    between atoms: _578  and  _579
REMARK  236  A    between atoms: _582  and  _584
REMARK  237  A    between atoms: _584  and  _585
REMARK  238  A    between atoms: _584  and  _587
REMARK  239  A    between atoms: _587  and  _588
REMARK  240  A    between atoms: _588  and  _589
REMARK  241  A    between atoms: _594  and  _596
REMARK  242  A    between atoms: _596  and  _597
REMARK  243  A    between atoms: _596  and  _599
REMARK  244  A    between atoms: _599  and  _600
REMARK  245  A    between atoms: _600  and  _601
REMARK  246  A    between atoms: _604  and  _606
REMARK  247  A    between atoms: _606  and  _607
REMARK  248  A    between atoms: _606  and  _609
REMARK  249  A    between atoms: _609  and  _610
REMARK  250  A    between atoms: _616  and  _618
REMARK  251  A    between atoms: _618  and  _619
REMARK  252  A    between atoms: _618  and  _621
REMARK  253  A    between atoms: _621  and  _622
REMARK  254  A    between atoms: _628  and  _630
REMARK  255  A    between atoms: _630  and  _631
REMARK  256  A    between atoms: _630  and  _633
REMARK  257  A    between atoms: _633  and  _634
REMARK  258  A    between atoms: _637  and  _639
REMARK  259  A    between atoms: _639  and  _640
REMARK  260  A    between atoms: _639  and  _642
REMARK  261  A    between atoms: _642  and  _643
REMARK  262  A    between atoms: _648  and  _649
REMARK  263  A    between atoms: _651  and  _653
REMARK  264  A    between atoms: _653  and  _654
REMARK  265  A    between atoms: _657  and  _659
REMARK  266  A    between atoms: _659  and  _660
REMARK  267  A    between atoms: _659  and  _662
REMARK  268  A    between atoms: _662  and  _663
REMARK  269  A    between atoms: _663  and  _664
REMARK  270  A    between atoms: _670  and  _671
REMARK  271  A    between atoms: _676  and  _678
REMARK  272  A    between atoms: _678  and  _679
REMARK  273  A    between atoms: _678  and  _681
REMARK  274  A    between atoms: _681  and  _682
REMARK  275  A    between atoms: _685  and  _687
REMARK  276  A    between atoms: _687  and  _688
REMARK  277  A    between atoms: _687  and  _690
REMARK  278  A    between atoms: _690  and  _691
REMARK  279  A    between atoms: _691  and  _692
REMARK  280  A    between atoms: _695  and  _697
REMARK  281  A    between atoms: _697  and  _698
REMARK  282  A    between atoms: _697  and  _700
REMARK  283  A    between atoms: _703  and  _705
REMARK  284  A    between atoms: _705  and  _706
REMARK  285  A    between atoms: _705  and  _708
REMARK  286  A    between atoms: _708  and  _709
REMARK  287  A    between atoms: _709  and  _710
REMARK                            x       y       z     vdW  Elec       q    Type
REMARK                         _______ _______ _______ _____ _____    ______ ____
ROOT
ATOM      1  C   VAL A   1      27.647 123.031  14.318  0.00  0.00    +0.238 C 
ATOM      2  N   MET A   2      26.538 123.602  13.879  0.00  0.00    -0.298 N 
ATOM      3  H   MET A   2      25.871 124.000  14.570  0.00  0.00    +0.150 HD
ATOM      4  O   VAL A   1      28.499 122.555  13.573  0.00  0.00    -0.274 OA
ENDROOT
BRANCH   1   5
ATOM      5  CA  VAL A   1      27.812 123.031  15.826  0.00  0.00    +0.145 C 
BRANCH   5   6
ATOM      6  CB  VAL A   1      26.777 122.087  16.424  0.00  0.00    +0.025 C 
ATOM      7  CG2 VAL A   1      26.986 121.970  17.922  0.00  0.00    +0.002 C 
ATOM      8  CG1 VAL A   1      26.906 120.715  15.768  0.00  0.00    +0.002 C 
ENDBRANCH   5   6
BRANCH   5   9
ATOM      9  N   VAL A   1      27.635 124.397  16.311  0.00  0.00    -0.238 NA
ATOM     10  H   VAL A   1      26.913 124.595  17.033  0.00  0.00    +0.142 HD
ENDBRANCH   5   9
ENDBRANCH   1   5
BRANCH   2  11
ATOM     11  CA  MET A   2      26.220 123.692  12.468  0.00  0.00    +0.138 C 
BRANCH  11  12
ATOM     12  C   MET A   2      27.391 124.283  11.706  0.00  0.00    +0.227 C 
ATOM     13  O   MET A   2      27.747 123.798  10.634  0.00  0.00    -0.286 OA
ENDBRANCH  11  12
BRANCH  11  14
ATOM     14  CB  MET A   2      24.980 124.577  12.259  0.00  0.00    +0.039 C 
BRANCH  14  15
ATOM     15  CG  MET A   2      23.666 123.819  12.056  0.00  0.00    +0.060 C 
BRANCH  15  16
ATOM     16  SD  MET A   2      23.895 122.010  12.001  0.00  0.00    -0.139 S 
ATOM     17  CE  MET A   2      23.884 121.568  13.775  0.00  0.00    +0.069 C 
ENDBRANCH  15  16
ENDBRANCH  14  15
ENDBRANCH  11  14
ENDBRANCH   2  11
TORSDOF 8
REMARK  Name = ../refined-set-2016/5tmp/5tmp_pocket.pdb
REMARK  287 active torsions:
REMARK  status: ('A' for Active; 'I' for Inactive)
REMARK    1  A    between atoms: _1  and  _3
REMARK    2  A    between atoms: _3  and  _4
REMARK    3  A    between atoms: _3  and  _6
REMARK    4  A    between atoms: _6  and  _7
REMARK    5  A    between atoms: _10  and  _12
REMARK    6  A    between atoms: _12  and  _13
REMARK    7  A    between atoms: _12  and  _15
REMARK    8  A    between atoms: _15  and  _16
REMARK    9  A    between atoms: _16  and  _17
REMARK   10  A    between atoms: _20  and  _22
REMARK   11  A    between atoms: _22  and  _23
REMARK   12  A    between atoms: _25  and  _27
REMARK   13  A    between atoms: _27  and  _28
REMARK   14  A    between atoms: _27  and  _30
REMARK   15  A    between atoms: _30  and  _31
REMARK   16  A    between atoms: _34  and  _36
REMARK   17  A    between atoms: _36  and  _37
REMARK   18  A    between atoms: _36  and  _39
REMARK   19  A    between atoms: _39  and  _40
REMARK   20  A    between atoms: _40  and  _41
REMARK   21  A    between atoms: _44  and  _46
REMARK   22  A    between atoms: _46  and  _47
REMARK   23  A    between atoms: _49  and  _51
REMARK   24  A    between atoms: _51  and  _52
REMARK   25  A    between atoms: _55  and  _57
REMARK   26  A    between atoms: _57  and  _58
REMARK   27  A    between atoms: _60  and  _62
REMARK   28  A    between atoms: _62  and  _63
REMARK   29  A    between atoms: _62  and  _65
REMARK   30  A    between atoms: _65  and  _66
REMARK   31  A    between atoms: _66  and  _67
REMARK   32  A    between atoms: _67  and  _68
REMARK   33  A    between atoms: _68  and  _69
REMARK   34  A    between atoms: _73  and  _75
REMARK   35  A    between atoms: _75  and  _76
REMARK   36  A    between atoms: _75  and  _78
REMARK   37  A    between atoms: _78  and  _79
REMARK   38  A    between atoms: _82  and  _84
REMARK   39  A    between atoms: _84  and  _85
REMARK   40  A    between atoms: _84  and  _87
REMARK   41  A    between atoms: _87  and  _88
REMARK   42  A    between atoms: _91  and  _93
REMARK   43  A    between atoms: _93  and  _94
REMARK   44  A    between atoms: _97  and  _99
REMARK   45  A    between atoms: _99  and  _100
REMARK   46  A    between atoms: _99  and  _102
REMARK   47  A    between atoms: _102  and  _103
REMARK   48  A    between atoms: _103  and  _104
REMARK   49  A    between atoms: _104  and  _105
REMARK   50  A    between atoms: _114  and  _116
REMARK   51  A    between atoms: _116  and  _117
REMARK   52  A    between atoms: _116  and  _119
REMARK   53  A    between atoms: _119  and  _120
REMARK   54  A    between atoms: _120  and  _121
REMARK   55  A    between atoms: _121  and  _122
REMARK   56  A    between atoms: _131  and  _133
REMARK   57  A    between atoms: _133  and  _134
REMARK   58  A    between atoms: _133  and  _136
REMARK   59  A    between atoms: _136  and  _137
REMARK   60  A    between atoms: _137  and  _138
REMARK   61  A    between atoms: _142  and  _143
REMARK   62  A    between atoms: _148  and  _150
REMARK   63  A    between atoms: _150  and  _151
REMARK   64  A    between atoms: _153  and  _155
REMARK   65  A    between atoms: _155  and  _156
REMARK   66  A    between atoms: _155  and  _158
REMARK   67  A    between atoms: _158  and  _159
REMARK   68  A    between atoms: _159  and  _160
REMARK   69  A    between atoms: _160  and  _161
REMARK   70  A    between atoms: _170  and  _172
REMARK   71  A    between atoms: _172  and  _173
REMARK   72  A    between atoms: _172  and  _175
REMARK   73  A    between atoms: _175  and  _176
REMARK   74  A    between atoms: _179  and  _181
REMARK   75  A    between atoms: _181  and  _182
REMARK   76  A    between atoms: _181  and  _184
REMARK   77  A    between atoms: _184  and  _185
REMARK   78  A    between atoms: _188  and  _190
REMARK   79  A    between atoms: _190  and  _191
REMARK   80  A    between atoms: _190  and  _193
REMARK   81  A    between atoms: _193  and  _194
REMARK   82  A    between atoms: _194  and  _195
REMARK   83  A    between atoms: _198  and  _200
REMARK   84  A    between atoms: _200  and  _201
REMARK   85  A    between atoms: _200  and  _203
REMARK   86  A    between atoms: _206  and  _208
REMARK   87  A    between atoms: _208  and  _209
REMARK   88  A    between atoms: _208  and  _211
REMARK   89  A    between atoms: _211  and  _212
REMARK   90  A    between atoms: _212  and  _213
REMARK   91  A    between atoms: _215  and  _217
REMARK   92  A    between atoms: _217  and  _218
REMARK   93  A    between atoms: _217  and  _220
REMARK   94  A    between atoms: _220  and  _221
REMARK   95  A    between atoms: _227  and  _229
REMARK   96  A    between atoms: _229  and  _230
REMARK   97  A    between atoms: _229  and  _232
REMARK   98  A    between atoms: _232  and  _233
REMARK   99  A    between atoms: _238  and  _239
REMARK  100  A    between atoms: _241  and  _243
REMARK  101  A    between atoms: _243  and  _244
REMARK  102  A    between atoms: _247  and  _249
REMARK  103  A    between atoms: _249  and  _250
REMARK  104  A    between atoms: _249  and  _252
REMARK  105  A    between atoms: _252  and  _253
REMARK  106  A    between atoms: _253  and  _254
REMARK  107  A    between atoms: _254  and  _255
REMARK  108  A    between atoms: _264  and  _266
REMARK  109  A    between atoms: _266  and  _267
REMARK  110  A    between atoms: _266  and  _269
REMARK  111  A    between atoms: _269  and  _270
REMARK  112  A    between atoms: _273  and  _275
REMARK  113  A    between atoms: _275  and  _276
REMARK  114  A    between atoms: _275  and  _278
REMARK  115  A    between atoms: _278  and  _279
REMARK  116  A    between atoms: _279  and  _280
REMARK  117  A    between atoms: _280  and  _281
REMARK  118  A    between atoms: _290  and  _292
REMARK  119  A    between atoms: _292  and  _293
REMARK  120  A    between atoms: _292  and  _295
REMARK  121  A    between atoms: _295  and  _296
REMARK  122  A    between atoms: _301  and  _303
REMARK  123  A    between atoms: _303  and  _304
REMARK  124  A    between atoms: _303  and  _306
REMARK  125  A    between atoms: _306  and  _307
REMARK  126  A    between atoms: _310  and  _312
REMARK  127  A    between atoms: _312  and  _313
REMARK  128  A    between atoms: _312  and  _315
REMARK  129  A    between atoms: _315  and  _316
REMARK  130  A    between atoms: _319  and  _321
REMARK  131  A    between atoms: _321  and  _322
REMARK  132  A    between atoms: _321  and  _324
REMARK  133  A    between atoms: _324  and  _325
REMARK  134  A    between atoms: _327  and  _329
REMARK  135  A    between atoms: _329  and  _330
REMARK  136  A    between atoms: _329  and  _332
REMARK  137  A    between atoms: _332  and  _333
REMARK  138  A    between atoms: _336  and  _338
REMARK  139  A    between atoms: _338  and  _339
REMARK  140  A    between atoms: _338  and  _341
REMARK  141  A    between atoms: _341  and  _342
REMARK  142  A    between atoms: _342  and  _343
REMARK  143  A    between atoms: _348  and  _350
REMARK  144  A    between atoms: _350  and  _351
REMARK  145  A    between atoms: _354  and  _356
REMARK  146  A    between atoms: _356  and  _357
REMARK  147  A    between atoms: _356  and  _359
REMARK  148  A    between atoms: _359  and  _360
REMARK  149  A    between atoms: _365  and  _366
REMARK  150  A    between atoms: _368  and  _370
REMARK  151  A    between atoms: _370  and  _371
REMARK  152  A    between atoms: _370  and  _373
REMARK  153  A    between atoms: _373  and  _374
REMARK  154  A    between atoms: _374  and  _375
REMARK  155  A    between atoms: _380  and  _382
REMARK  156  A    between atoms: _382  and  _383
REMARK  157  A    between atoms: _385  and  _387
REMARK  158  A    between atoms: _387  and  _388
REMARK  159  A    between atoms: _390  and  _392
REMARK  160  A    between atoms: _392  and  _393
REMARK  161  A    between atoms: _392  and  _395
REMARK  162  A    between atoms: _395  and  _396
REMARK  163  A    between atoms: _396  and  _397
REMARK  164  A    between atoms: _397  and  _398
REMARK  165  A    between atoms: _407  and  _409
REMARK  166  A    between atoms: _409  and  _410
REMARK  167  A    between atoms: _409  and  _412
REMARK  168  A    between atoms: _412  and  _413
REMARK  169  A    between atoms: _416  and  _418
REMARK  170  A    between atoms: _418  and  _419
REMARK  171  A    between atoms: _418  and  _421
REMARK  172  A    between atoms: _424  and  _426
REMARK  173  A    between atoms: _426  and  _427
REMARK  174  A    between atoms: _426  and  _429
REMARK  175  A    between atoms: _432  and  _434
REMARK  176  A    between atoms: _434  and  _435
REMARK  177  A    between atoms: _437  and  _439
REMARK  178  A    between atoms: _439  and  _440
REMARK  179  A    between atoms: _439  and  _442
REMARK  180  A    between atoms: _442  and  _443
REMARK  181  A    between atoms: _446  and  _448
REMARK  182  A    between atoms: _448  and  _449
REMARK  183  A    between atoms: _448  and  _451
REMARK  184  A    between atoms: _451  and  _452
REMARK  185  A    between atoms: _452  and  _453
REMARK  186  A    between atoms: _453  and  _454
REMARK  187  A    between atoms: _454  and  _455
REMARK  188  A    between atoms: _459  and  _461
REMARK  189  A    between atoms: _461  and  _462
REMARK  190  A    between atoms: _461  and  _464
REMARK  191  A    between atoms: _464  and  _465
REMARK  192  A    between atoms: _465  and  _466
REMARK  193  A    between atoms: _466  and  _467
REMARK  194  A    between atoms: _476  and  _478
REMARK  195  A    between atoms: _478  and  _479
REMARK  196  A    between atoms: _482  and  _484
REMARK  197  A    between atoms: _484  and  _485
REMARK  198  A    between atoms: _484  and  _487
REMARK  199  A    between atoms: _487  and  _488
REMARK  200  A    between atoms: _488  and  _489
REMARK  201  A    between atoms: _489  and  _490
REMARK  202  A    between atoms: _499  and  _501
REMARK  203  A    between atoms: _501  and  _502
REMARK  204  A    between atoms: _505  and  _507
REMARK  205  A    between atoms: _507  and  _508
REMARK  206  A    between atoms: _507  and  _510
REMARK  207  A    between atoms: _510  and  _511
REMARK  208  A    between atoms: _511  and  _512
REMARK  209  A    between atoms: _512  and  _513
REMARK  210  A    between atoms: _522  and  _524
REMARK  211  A    between atoms: _524  and  _525
REMARK  212  A    between atoms: _527  and  _529
REMARK  213  A    between atoms: _529  and  _530
REMARK  214  A    between atoms: _529  and  _532
REMARK  215  A    between atoms: _532  and  _533
REMARK  216  A    between atoms: _533  and  _534
REMARK  217  A    between atoms: _537  and  _539
REMARK  218  A    between atoms: _539  and  _540
REMARK  219  A    between atoms: _539  and  _542
REMARK  220  A    between atoms: _542  and  _543
REMARK  221  A    between atoms: _546  and  _548
REMARK  222  A    between atoms: _548  and  _549
REMARK  223  A    between atoms: _548  and  _551
REMARK  224  A    between atoms: _551  and  _552
REMARK  225  A    between atoms: _552  and  _553
REMARK  226  A    between atoms: _553  and  _554
REMARK  227  A    between atoms: _563  and  _565
REMARK  228  A    between atoms: _565  and  _566
REMARK  229  A    between atoms: _565  and  _568
REMARK  230  A    between atoms: _568  and  _569
REMARK  231  A    between atoms: _572  and  _574
REMARK  232  A    between atoms: _574  and  _575
REMARK  233  A    between atoms: _574  and  _577
REMARK  234  A    between atoms: _577  and  _578
REMARK  235  A    between atoms: _578  and  _579
REMARK  236  A    between atoms: _582  and  _584
REMARK  237  A    between atoms: _584  and  _585
REMARK  238  A    between atoms: _584  and  _587
REMARK  239  A    between atoms: _587  and  _588
REMARK  240  A    between atoms: _588  and  _589
REMARK  241  A    between atoms: _594  and  _596
REMARK  242  A    between atoms: _596  and  _597
REMARK  243  A    between atoms: _596  and  _599
REMARK  244  A    between atoms: _599  and  _600
REMARK  245  A    between atoms: _600  and  _601
REMARK  246  A    between atoms: _604  and  _606
REMARK  247  A    between atoms: _606  and  _607
REMARK  248  A    between atoms: _606  and  _609
REMARK  249  A    between atoms: _609  and  _610
REMARK  250  A    between atoms: _616  and  _618
REMARK  251  A    between atoms: _618  and  _619
REMARK  252  A    between atoms: _618  and  _621
REMARK  253  A    between atoms: _621  and  _622
REMARK  254  A    between atoms: _628  and  _630
REMARK  255  A    between atoms: _630  and  _631
REMARK  256  A    between atoms: _630  and  _633
REMARK  257  A    between atoms: _633  and  _634
REMARK  258  A    between atoms: _637  and  _639
REMARK  259  A    between atoms: _639  and  _640
REMARK  260  A    between atoms: _639  and  _642
REMARK  261  A    between atoms: _642  and  _643
REMARK  262  A    between atoms: _648  and  _649
REMARK  263  A    between atoms: _651  and  _653
REMARK  264  A    between atoms: _653  and  _654
REMARK  265  A    between atoms: _657  and  _659
REMARK  266  A    between atoms: _659  and  _660
REMARK  267  A    between atoms: _659  and  _662
REMARK  268  A    between atoms: _662  and  _663
REMARK  269  A    between atoms: _663  and  _664
REMARK  270  A    between atoms: _670  and  _671
REMARK  271  A    between atoms: _676  and  _678
REMARK  272  A    between atoms: _678  and  _679
REMARK  273  A    between atoms: _678  and  _681
REMARK  274  A    between atoms: _681  and  _682
REMARK  275  A    between atoms: _685  and  _687
REMARK  276  A    between atoms: _687  and  _688
REMARK  277  A    between atoms: _687  and  _690
REMARK  278  A    between atoms: _690  and  _691
REMARK  279  A    between atoms: _691  and  _692
REMARK  280  A    between atoms: _695  and  _697
REMARK  281  A    between atoms: _697  and  _698
REMARK  282  A    between atoms: _697  and  _700
REMARK  283  A    between atoms: _703  and  _705
REMARK  284  A    between atoms: _705  and  _706
REMARK  285  A    between atoms: _705  and  _708
REMARK  286  A    between atoms: _708  and  _709
REMARK  287  A    between atoms: _709  and  _710
REMARK                            x       y       z     vdW  Elec       q    Type
REMARK                         _______ _______ _______ _____ _____    ______ ____
ROOT
ATOM      1  O   HOH     1      16.731 103.025  18.568  0.00  0.00    +0.000 OA
ENDROOT
TORSDOF 0
REMARK  Name = ../refined-set-2016/5tmp/5tmp_pocket.pdb
REMARK  287 active torsions:
REMARK  status: ('A' for Active; 'I' for Inactive)
REMARK    1  A    between atoms: _1  and  _3
REMARK    2  A    between atoms: _3  and  _4
REMARK    3  A    between atoms: _3  and  _6
REMARK    4  A    between atoms: _6  and  _7
REMARK    5  A    between atoms: _10  and  _12
REMARK    6  A    between atoms: _12  and  _13
REMARK    7  A    between atoms: _12  and  _15
REMARK    8  A    between atoms: _15  and  _16
REMARK    9  A    between atoms: _16  and  _17
REMARK   10  A    between atoms: _20  and  _22
REMARK   11  A    between atoms: _22  and  _23
REMARK   12  A    between atoms: _25  and  _27
REMARK   13  A    between atoms: _27  and  _28
REMARK   14  A    between atoms: _27  and  _30
REMARK   15  A    between atoms: _30  and  _31
REMARK   16  A    between atoms: _34  and  _36
REMARK   17  A    between atoms: _36  and  _37
REMARK   18  A    between atoms: _36  and  _39
REMARK   19  A    between atoms: _39  and  _40
REMARK   20  A    between atoms: _40  and  _41
REMARK   21  A    between atoms: _44  and  _46
REMARK   22  A    between atoms: _46  and  _47
REMARK   23  A    between atoms: _49  and  _51
REMARK   24  A    between atoms: _51  and  _52
REMARK   25  A    between atoms: _55  and  _57
REMARK   26  A    between atoms: _57  and  _58
REMARK   27  A    between atoms: _60  and  _62
REMARK   28  A    between atoms: _62  and  _63
REMARK   29  A    between atoms: _62  and  _65
REMARK   30  A    between atoms: _65  and  _66
REMARK   31  A    between atoms: _66  and  _67
REMARK   32  A    between atoms: _67  and  _68
REMARK   33  A    between atoms: _68  and  _69
REMARK   34  A    between atoms: _73  and  _75
REMARK   35  A    between atoms: _75  and  _76
REMARK   36  A    between atoms: _75  and  _78
REMARK   37  A    between atoms: _78  and  _79
REMARK   38  A    between atoms: _82  and  _84
REMARK   39  A    between atoms: _84  and  _85
REMARK   40  A    between atoms: _84  and  _87
REMARK   41  A    between atoms: _87  and  _88
REMARK   42  A    between atoms: _91  and  _93
REMARK   43  A    between atoms: _93  and  _94
REMARK   44  A    between atoms: _97  and  _99
REMARK   45  A    between atoms: _99  and  _100
REMARK   46  A    between atoms: _99  and  _102
REMARK   47  A    between atoms: _102  and  _103
REMARK   48  A    between atoms: _103  and  _104
REMARK   49  A    between atoms: _104  and  _105
REMARK   50  A    between atoms: _114  and  _116
REMARK   51  A    between atoms: _116  and  _117
REMARK   52  A    between atoms: _116  and  _119
REMARK   53  A    between atoms: _119  and  _120
REMARK   54  A    between atoms: _120  and  _121
REMARK   55  A    between atoms: _121  and  _122
REMARK   56  A    between atoms: _131  and  _133
REMARK   57  A    between atoms: _133  and  _134
REMARK   58  A    between atoms: _133  and  _136
REMARK   59  A    between atoms: _136  and  _137
REMARK   60  A    between atoms: _137  and  _138
REMARK   61  A    between atoms: _142  and  _143
REMARK   62  A    between atoms: _148  and  _150
REMARK   63  A    between atoms: _150  and  _151
REMARK   64  A    between atoms: _153  and  _155
REMARK   65  A    between atoms: _155  and  _156
REMARK   66  A    between atoms: _155  and  _158
REMARK   67  A    between atoms: _158  and  _159
REMARK   68  A    between atoms: _159  and  _160
REMARK   69  A    between atoms: _160  and  _161
REMARK   70  A    between atoms: _170  and  _172
REMARK   71  A    between atoms: _172  and  _173
REMARK   72  A    between atoms: _172  and  _175
REMARK   73  A    between atoms: _175  and  _176
REMARK   74  A    between atoms: _179  and  _181
REMARK   75  A    between atoms: _181  and  _182
REMARK   76  A    between atoms: _181  and  _184
REMARK   77  A    between atoms: _184  and  _185
REMARK   78  A    between atoms: _188  and  _190
REMARK   79  A    between atoms: _190  and  _191
REMARK   80  A    between atoms: _190  and  _193
REMARK   81  A    between atoms: _193  and  _194
REMARK   82  A    between atoms: _194  and  _195
REMARK   83  A    between atoms: _198  and  _200
REMARK   84  A    between atoms: _200  and  _201
REMARK   85  A    between atoms: _200  and  _203
REMARK   86  A    between atoms: _206  and  _208
REMARK   87  A    between atoms: _208  and  _209
REMARK   88  A    between atoms: _208  and  _211
REMARK   89  A    between atoms: _211  and  _212
REMARK   90  A    between atoms: _212  and  _213
REMARK   91  A    between atoms: _215  and  _217
REMARK   92  A    between atoms: _217  and  _218
REMARK   93  A    between atoms: _217  and  _220
REMARK   94  A    between atoms: _220  and  _221
REMARK   95  A    between atoms: _227  and  _229
REMARK   96  A    between atoms: _229  and  _230
REMARK   97  A    between atoms: _229  and  _232
REMARK   98  A    between atoms: _232  and  _233
REMARK   99  A    between atoms: _238  and  _239
REMARK  100  A    between atoms: _241  and  _243
REMARK  101  A    between atoms: _243  and  _244
REMARK  102  A    between atoms: _247  and  _249
REMARK  103  A    between atoms: _249  and  _250
REMARK  104  A    between atoms: _249  and  _252
REMARK  105  A    between atoms: _252  and  _253
REMARK  106  A    between atoms: _253  and  _254
REMARK  107  A    between atoms: _254  and  _255
REMARK  108  A    between atoms: _264  and  _266
REMARK  109  A    between atoms: _266  and  _267
REMARK  110  A    between atoms: _266  and  _269
REMARK  111  A    between atoms: _269  and  _270
REMARK  112  A    between atoms: _273  and  _275
REMARK  113  A    between atoms: _275  and  _276
REMARK  114  A    between atoms: _275  and  _278
REMARK  115  A    between atoms: _278  and  _279
REMARK  116  A    between atoms: _279  and  _280
REMARK  117  A    between atoms: _280  and  _281
REMARK  118  A    between atoms: _290  and  _292
REMARK  119  A    between atoms: _292  and  _293
REMARK  120  A    between atoms: _292  and  _295
REMARK  121  A    between atoms: _295  and  _296
REMARK  122  A    between atoms: _301  and  _303
REMARK  123  A    between atoms: _303  and  _304
REMARK  124  A    between atoms: _303  and  _306
REMARK  125  A    between atoms: _306  and  _307
REMARK  126  A    between atoms: _310  and  _312
REMARK  127  A    between atoms: _312  and  _313
REMARK  128  A    between atoms: _312  and  _315
REMARK  129  A    between atoms: _315  and  _316
REMARK  130  A    between atoms: _319  and  _321
REMARK  131  A    between atoms: _321  and  _322
REMARK  132  A    between atoms: _321  and  _324
REMARK  133  A    between atoms: _324  and  _325
REMARK  134  A    between atoms: _327  and  _329
REMARK  135  A    between atoms: _329  and  _330
REMARK  136  A    between atoms: _329  and  _332
REMARK  137  A    between atoms: _332  and  _333
REMARK  138  A    between atoms: _336  and  _338
REMARK  139  A    between atoms: _338  and  _339
REMARK  140  A    between atoms: _338  and  _341
REMARK  141  A    between atoms: _341  and  _342
REMARK  142  A    between atoms: _342  and  _343
REMARK  143  A    between atoms: _348  and  _350
REMARK  144  A    between atoms: _350  and  _351
REMARK  145  A    between atoms: _354  and  _356
REMARK  146  A    between atoms: _356  and  _357
REMARK  147  A    between atoms: _356  and  _359
REMARK  148  A    between atoms: _359  and  _360
REMARK  149  A    between atoms: _365  and  _366
REMARK  150  A    between atoms: _368  and  _370
REMARK  151  A    between atoms: _370  and  _371
REMARK  152  A    between atoms: _370  and  _373
REMARK  153  A    between atoms: _373  and  _374
REMARK  154  A    between atoms: _374  and  _375
REMARK  155  A    between atoms: _380  and  _382
REMARK  156  A    between atoms: _382  and  _383
REMARK  157  A    between atoms: _385  and  _387
REMARK  158  A    between atoms: _387  and  _388
REMARK  159  A    between atoms: _390  and  _392
REMARK  160  A    between atoms: _392  and  _393
REMARK  161  A    between atoms: _392  and  _395
REMARK  162  A    between atoms: _395  and  _396
REMARK  163  A    between atoms: _396  and  _397
REMARK  164  A    between atoms: _397  and  _398
REMARK  165  A    between atoms: _407  and  _409
REMARK  166  A    between atoms: _409  and  _410
REMARK  167  A    between atoms: _409  and  _412
REMARK  168  A    between atoms: _412  and  _413
REMARK  169  A    between atoms: _416  and  _418
REMARK  170  A    between atoms: _418  and  _419
REMARK  171  A    between atoms: _418  and  _421
REMARK  172  A    between atoms: _424  and  _426
REMARK  173  A    between atoms: _426  and  _427
REMARK  174  A    between atoms: _426  and  _429
REMARK  175  A    between atoms: _432  and  _434
REMARK  176  A    between atoms: _434  and  _435
REMARK  177  A    between atoms: _437  and  _439
REMARK  178  A    between atoms: _439  and  _440
REMARK  179  A    between atoms: _439  and  _442
REMARK  180  A    between atoms: _442  and  _443
REMARK  181  A    between atoms: _446  and  _448
REMARK  182  A    between atoms: _448  and  _449
REMARK  183  A    between atoms: _448  and  _451
REMARK  184  A    between atoms: _451  and  _452
REMARK  185  A    between atoms: _452  and  _453
REMARK  186  A    between atoms: _453  and  _454
REMARK  187  A    between atoms: _454  and  _455
REMARK  188  A    between atoms: _459  and  _461
REMARK  189  A    between atoms: _461  and  _462
REMARK  190  A    between atoms: _461  and  _464
REMARK  191  A    between atoms: _464  and  _465
REMARK  192  A    between atoms: _465  and  _466
REMARK  193  A    between atoms: _466  and  _467
REMARK  194  A    between atoms: _476  and  _478
REMARK  195  A    between atoms: _478  and  _479
REMARK  196  A    between atoms: _482  and  _484
REMARK  197  A    between atoms: _484  and  _485
REMARK  198  A    between atoms: _484  and  _487
REMARK  199  A    between atoms: _487  and  _488
REMARK  200  A    between atoms: _488  and  _489
REMARK  201  A    between atoms: _489  and  _490
REMARK  202  A    between atoms: _499  and  _501
REMARK  203  A    between atoms: _501  and  _502
REMARK  204  A    between atoms: _505  and  _507
REMARK  205  A    between atoms: _507  and  _508
REMARK  206  A    between atoms: _507  and  _510
REMARK  207  A    between atoms: _510  and  _511
REMARK  208  A    between atoms: _511  and  _512
REMARK  209  A    between atoms: _512  and  _513
REMARK  210  A    between atoms: _522  and  _524
REMARK  211  A    between atoms: _524  and  _525
REMARK  212  A    between atoms: _527  and  _529
REMARK  213  A    between atoms: _529  and  _530
REMARK  214  A    between atoms: _529  and  _532
REMARK  215  A    between atoms: _532  and  _533
REMARK  216  A    between atoms: _533  and  _534
REMARK  217  A    between atoms: _537  and  _539
REMARK  218  A    between atoms: _539  and  _540
REMARK  219  A    between atoms: _539  and  _542
REMARK  220  A    between atoms: _542  and  _543
REMARK  221  A    between atoms: _546  and  _548
REMARK  222  A    between atoms: _548  and  _549
REMARK  223  A    between atoms: _548  and  _551
REMARK  224  A    between atoms: _551  and  _552
REMARK  225  A    between atoms: _552  and  _553
REMARK  226  A    between atoms: _553  and  _554
REMARK  227  A    between atoms: _563  and  _565
REMARK  228  A    between atoms: _565  and  _566
REMARK  229  A    between atoms: _565  and  _568
REMARK  230  A    between atoms: _568  and  _569
REMARK  231  A    between atoms: _572  and  _574
REMARK  232  A    between atoms: _574  and  _575
REMARK  233  A    between atoms: _574  and  _577
REMARK  234  A    between atoms: _577  and  _578
REMARK  235  A    between atoms: _578  and  _579
REMARK  236  A    between atoms: _582  and  _584
REMARK  237  A    between atoms: _584  and  _585
REMARK  238  A    between atoms: _584  and  _587
REMARK  239  A    between atoms: _587  and  _588
REMARK  240  A    between atoms: _588  and  _589
REMARK  241  A    between atoms: _594  and  _596
REMARK  242  A    between atoms: _596  and  _597
REMARK  243  A    between atoms: _596  and  _599
REMARK  244  A    between atoms: _599  and  _600
REMARK  245  A    between atoms: _600  and  _601
REMARK  246  A    between atoms: _604  and  _606
REMARK  247  A    between atoms: _606  and  _607
REMARK  248  A    between atoms: _606  and  _609
REMARK  249  A    between atoms: _609  and  _610
REMARK  250  A    between atoms: _616  and  _618
REMARK  251  A    between atoms: _618  and  _619
REMARK  252  A    between atoms: _618  and  _621
REMARK  253  A    between atoms: _621  and  _622
REMARK  254  A    between atoms: _628  and  _630
REMARK  255  A    between atoms: _630  and  _631
REMARK  256  A    between atoms: _630  and  _633
REMARK  257  A    between atoms: _633  and  _634
REMARK  258  A    between atoms: _637  and  _639
REMARK  259  A    between atoms: _639  and  _640
REMARK  260  A    between atoms: _639  and  _642
REMARK  261  A    between atoms: _642  and  _643
REMARK  262  A    between atoms: _648  and  _649
REMARK  263  A    between atoms: _651  and  _653
REMARK  264  A    between atoms: _653  and  _654
REMARK  265  A    between atoms: _657  and  _659
REMARK  266  A    between atoms: _659  and  _660
REMARK  267  A    between atoms: _659  and  _662
REMARK  268  A    between atoms: _662  and  _663
REMARK  269  A    between atoms: _663  and  _664
REMARK  270  A    between atoms: _670  and  _671
REMARK  271  A    between atoms: _676  and  _678
REMARK  272  A    between atoms: _678  and  _679
REMARK  273  A    between atoms: _678  and  _681
REMARK  274  A    between atoms: _681  and  _682
REMARK  275  A    between atoms: _685  and  _687
REMARK  276  A    between atoms: _687  and  _688
REMARK  277  A    between atoms: _687  and  _690
REMARK  278  A    between atoms: _690  and  _691
REMARK  279  A    between atoms: _691  and  _692
REMARK  280  A    between atoms: _695  and  _697
REMARK  281  A    between atoms: _697  and  _698
REMARK  282  A    between atoms: _697  and  _700
REMARK  283  A    between atoms: _703  and  _705
REMARK  284  A    between atoms: _705  and  _706
REMARK  285  A    between atoms: _705  and  _708
REMARK  286  A    between atoms: _708  and  _709
REMARK  287  A    between atoms: _709  and  _710
REMARK                            x       y       z     vdW  Elec       q    Type
REMARK                         _______ _______ _______ _____ _____    ______ ____
ROOT
ATOM      1  O   HOH     1      16.741 104.657  21.991  0.00  0.00    +0.000 OA
ENDROOT
TORSDOF 0
REMARK  Name = ../refined-set-2016/5tmp/5tmp_pocket.pdb
REMARK  287 active torsions:
REMARK  status: ('A' for Active; 'I' for Inactive)
REMARK    1  A    between atoms: _1  and  _3
REMARK    2  A    between atoms: _3  and  _4
REMARK    3  A    between atoms: _3  and  _6
REMARK    4  A    between atoms: _6  and  _7
REMARK    5  A    between atoms: _10  and  _12
REMARK    6  A    between atoms: _12  and  _13
REMARK    7  A    between atoms: _12  and  _15
REMARK    8  A    between atoms: _15  and  _16
REMARK    9  A    between atoms: _16  and  _17
REMARK   10  A    between atoms: _20  and  _22
REMARK   11  A    between atoms: _22  and  _23
REMARK   12  A    between atoms: _25  and  _27
REMARK   13  A    between atoms: _27  and  _28
REMARK   14  A    between atoms: _27  and  _30
REMARK   15  A    between atoms: _30  and  _31
REMARK   16  A    between atoms: _34  and  _36
REMARK   17  A    between atoms: _36  and  _37
REMARK   18  A    between atoms: _36  and  _39
REMARK   19  A    between atoms: _39  and  _40
REMARK   20  A    between atoms: _40  and  _41
REMARK   21  A    between atoms: _44  and  _46
REMARK   22  A    between atoms: _46  and  _47
REMARK   23  A    between atoms: _49  and  _51
REMARK   24  A    between atoms: _51  and  _52
REMARK   25  A    between atoms: _55  and  _57
REMARK   26  A    between atoms: _57  and  _58
REMARK   27  A    between atoms: _60  and  _62
REMARK   28  A    between atoms: _62  and  _63
REMARK   29  A    between atoms: _62  and  _65
REMARK   30  A    between atoms: _65  and  _66
REMARK   31  A    between atoms: _66  and  _67
REMARK   32  A    between atoms: _67  and  _68
REMARK   33  A    between atoms: _68  and  _69
REMARK   34  A    between atoms: _73  and  _75
REMARK   35  A    between atoms: _75  and  _76
REMARK   36  A    between atoms: _75  and  _78
REMARK   37  A    between atoms: _78  and  _79
REMARK   38  A    between atoms: _82  and  _84
REMARK   39  A    between atoms: _84  and  _85
REMARK   40  A    between atoms: _84  and  _87
REMARK   41  A    between atoms: _87  and  _88
REMARK   42  A    between atoms: _91  and  _93
REMARK   43  A    between atoms: _93  and  _94
REMARK   44  A    between atoms: _97  and  _99
REMARK   45  A    between atoms: _99  and  _100
REMARK   46  A    between atoms: _99  and  _102
REMARK   47  A    between atoms: _102  and  _103
REMARK   48  A    between atoms: _103  and  _104
REMARK   49  A    between atoms: _104  and  _105
REMARK   50  A    between atoms: _114  and  _116
REMARK   51  A    between atoms: _116  and  _117
REMARK   52  A    between atoms: _116  and  _119
REMARK   53  A    between atoms: _119  and  _120
REMARK   54  A    between atoms: _120  and  _121
REMARK   55  A    between atoms: _121  and  _122
REMARK   56  A    between atoms: _131  and  _133
REMARK   57  A    between atoms: _133  and  _134
REMARK   58  A    between atoms: _133  and  _136
REMARK   59  A    between atoms: _136  and  _137
REMARK   60  A    between atoms: _137  and  _138
REMARK   61  A    between atoms: _142  and  _143
REMARK   62  A    between atoms: _148  and  _150
REMARK   63  A    between atoms: _150  and  _151
REMARK   64  A    between atoms: _153  and  _155
REMARK   65  A    between atoms: _155  and  _156
REMARK   66  A    between atoms: _155  and  _158
REMARK   67  A    between atoms: _158  and  _159
REMARK   68  A    between atoms: _159  and  _160
REMARK   69  A    between atoms: _160  and  _161
REMARK   70  A    between atoms: _170  and  _172
REMARK   71  A    between atoms: _172  and  _173
REMARK   72  A    between atoms: _172  and  _175
REMARK   73  A    between atoms: _175  and  _176
REMARK   74  A    between atoms: _179  and  _181
REMARK   75  A    between atoms: _181  and  _182
REMARK   76  A    between atoms: _181  and  _184
REMARK   77  A    between atoms: _184  and  _185
REMARK   78  A    between atoms: _188  and  _190
REMARK   79  A    between atoms: _190  and  _191
REMARK   80  A    between atoms: _190  and  _193
REMARK   81  A    between atoms: _193  and  _194
REMARK   82  A    between atoms: _194  and  _195
REMARK   83  A    between atoms: _198  and  _200
REMARK   84  A    between atoms: _200  and  _201
REMARK   85  A    between atoms: _200  and  _203
REMARK   86  A    between atoms: _206  and  _208
REMARK   87  A    between atoms: _208  and  _209
REMARK   88  A    between atoms: _208  and  _211
REMARK   89  A    between atoms: _211  and  _212
REMARK   90  A    between atoms: _212  and  _213
REMARK   91  A    between atoms: _215  and  _217
REMARK   92  A    between atoms: _217  and  _218
REMARK   93  A    between atoms: _217  and  _220
REMARK   94  A    between atoms: _220  and  _221
REMARK   95  A    between atoms: _227  and  _229
REMARK   96  A    between atoms: _229  and  _230
REMARK   97  A    between atoms: _229  and  _232
REMARK   98  A    between atoms: _232  and  _233
REMARK   99  A    between atoms: _238  and  _239
REMARK  100  A    between atoms: _241  and  _243
REMARK  101  A    between atoms: _243  and  _244
REMARK  102  A    between atoms: _247  and  _249
REMARK  103  A    between atoms: _249  and  _250
REMARK  104  A    between atoms: _249  and  _252
REMARK  105  A    between atoms: _252  and  _253
REMARK  106  A    between atoms: _253  and  _254
REMARK  107  A    between atoms: _254  and  _255
REMARK  108  A    between atoms: _264  and  _266
REMARK  109  A    between atoms: _266  and  _267
REMARK  110  A    between atoms: _266  and  _269
REMARK  111  A    between atoms: _269  and  _270
REMARK  112  A    between atoms: _273  and  _275
REMARK  113  A    between atoms: _275  and  _276
REMARK  114  A    between atoms: _275  and  _278
REMARK  115  A    between atoms: _278  and  _279
REMARK  116  A    between atoms: _279  and  _280
REMARK  117  A    between atoms: _280  and  _281
REMARK  118  A    between atoms: _290  and  _292
REMARK  119  A    between atoms: _292  and  _293
REMARK  120  A    between atoms: _292  and  _295
REMARK  121  A    between atoms: _295  and  _296
REMARK  122  A    between atoms: _301  and  _303
REMARK  123  A    between atoms: _303  and  _304
REMARK  124  A    between atoms: _303  and  _306
REMARK  125  A    between atoms: _306  and  _307
REMARK  126  A    between atoms: _310  and  _312
REMARK  127  A    between atoms: _312  and  _313
REMARK  128  A    between atoms: _312  and  _315
REMARK  129  A    between atoms: _315  and  _316
REMARK  130  A    between atoms: _319  and  _321
REMARK  131  A    between atoms: _321  and  _322
REMARK  132  A    between atoms: _321  and  _324
REMARK  133  A    between atoms: _324  and  _325
REMARK  134  A    between atoms: _327  and  _329
REMARK  135  A    between atoms: _329  and  _330
REMARK  136  A    between atoms: _329  and  _332
REMARK  137  A    between atoms: _332  and  _333
REMARK  138  A    between atoms: _336  and  _338
REMARK  139  A    between atoms: _338  and  _339
REMARK  140  A    between atoms: _338  and  _341
REMARK  141  A    between atoms: _341  and  _342
REMARK  142  A    between atoms: _342  and  _343
REMARK  143  A    between atoms: _348  and  _350
REMARK  144  A    between atoms: _350  and  _351
REMARK  145  A    between atoms: _354  and  _356
REMARK  146  A    between atoms: _356  and  _357
REMARK  147  A    between atoms: _356  and  _359
REMARK  148  A    between atoms: _359  and  _360
REMARK  149  A    between atoms: _365  and  _366
REMARK  150  A    between atoms: _368  and  _370
REMARK  151  A    between atoms: _370  and  _371
REMARK  152  A    between atoms: _370  and  _373
REMARK  153  A    between atoms: _373  and  _374
REMARK  154  A    between atoms: _374  and  _375
REMARK  155  A    between atoms: _380  and  _382
REMARK  156  A    between atoms: _382  and  _383
REMARK  157  A    between atoms: _385  and  _387
REMARK  158  A    between atoms: _387  and  _388
REMARK  159  A    between atoms: _390  and  _392
REMARK  160  A    between atoms: _392  and  _393
REMARK  161  A    between atoms: _392  and  _395
REMARK  162  A    between atoms: _395  and  _396
REMARK  163  A    between atoms: _396  and  _397
REMARK  164  A    between atoms: _397  and  _398
REMARK  165  A    between atoms: _407  and  _409
REMARK  166  A    between atoms: _409  and  _410
REMARK  167  A    between atoms: _409  and  _412
REMARK  168  A    between atoms: _412  and  _413
REMARK  169  A    between atoms: _416  and  _418
REMARK  170  A    between atoms: _418  and  _419
REMARK  171  A    between atoms: _418  and  _421
REMARK  172  A    between atoms: _424  and  _426
REMARK  173  A    between atoms: _426  and  _427
REMARK  174  A    between atoms: _426  and  _429
REMARK  175  A    between atoms: _432  and  _434
REMARK  176  A    between atoms: _434  and  _435
REMARK  177  A    between atoms: _437  and  _439
REMARK  178  A    between atoms: _439  and  _440
REMARK  179  A    between atoms: _439  and  _442
REMARK  180  A    between atoms: _442  and  _443
REMARK  181  A    between atoms: _446  and  _448
REMARK  182  A    between atoms: _448  and  _449
REMARK  183  A    between atoms: _448  and  _451
REMARK  184  A    between atoms: _451  and  _452
REMARK  185  A    between atoms: _452  and  _453
REMARK  186  A    between atoms: _453  and  _454
REMARK  187  A    between atoms: _454  and  _455
REMARK  188  A    between atoms: _459  and  _461
REMARK  189  A    between atoms: _461  and  _462
REMARK  190  A    between atoms: _461  and  _464
REMARK  191  A    between atoms: _464  and  _465
REMARK  192  A    between atoms: _465  and  _466
REMARK  193  A    between atoms: _466  and  _467
REMARK  194  A    between atoms: _476  and  _478
REMARK  195  A    between atoms: _478  and  _479
REMARK  196  A    between atoms: _482  and  _484
REMARK  197  A    between atoms: _484  and  _485
REMARK  198  A    between atoms: _484  and  _487
REMARK  199  A    between atoms: _487  and  _488
REMARK  200  A    between atoms: _488  and  _489
REMARK  201  A    between atoms: _489  and  _490
REMARK  202  A    between atoms: _499  and  _501
REMARK  203  A    between atoms: _501  and  _502
REMARK  204  A    between atoms: _505  and  _507
REMARK  205  A    between atoms: _507  and  _508
REMARK  206  A    between atoms: _507  and  _510
REMARK  207  A    between atoms: _510  and  _511
REMARK  208  A    between atoms: _511  and  _512
REMARK  209  A    between atoms: _512  and  _513
REMARK  210  A    between atoms: _522  and  _524
REMARK  211  A    between atoms: _524  and  _525
REMARK  212  A    between atoms: _527  and  _529
REMARK  213  A    between atoms: _529  and  _530
REMARK  214  A    between atoms: _529  and  _532
REMARK  215  A    between atoms: _532  and  _533
REMARK  216  A    between atoms: _533  and  _534
REMARK  217  A    between atoms: _537  and  _539
REMARK  218  A    between atoms: _539  and  _540
REMARK  219  A    between atoms: _539  and  _542
REMARK  220  A    between atoms: _542  and  _543
REMARK  221  A    between atoms: _546  and  _548
REMARK  222  A    between atoms: _548  and  _549
REMARK  223  A    between atoms: _548  and  _551
REMARK  224  A    between atoms: _551  and  _552
REMARK  225  A    between atoms: _552  and  _553
REMARK  226  A    between atoms: _553  and  _554
REMARK  227  A    between atoms: _563  and  _565
REMARK  228  A    between atoms: _565  and  _566
REMARK  229  A    between atoms: _565  and  _568
REMARK  230  A    between atoms: _568  and  _569
REMARK  231  A    between atoms: _572  and  _574
REMARK  232  A    between atoms: _574  and  _575
REMARK  233  A    between atoms: _574  and  _577
REMARK  234  A    between atoms: _577  and  _578
REMARK  235  A    between atoms: _578  and  _579
REMARK  236  A    between atoms: _582  and  _584
REMARK  237  A    between atoms: _584  and  _585
REMARK  238  A    between atoms: _584  and  _587
REMARK  239  A    between atoms: _587  and  _588
REMARK  240  A    between atoms: _588  and  _589
REMARK  241  A    between atoms: _594  and  _596
REMARK  242  A    between atoms: _596  and  _597
REMARK  243  A    between atoms: _596  and  _599
REMARK  244  A    between atoms: _599  and  _600
REMARK  245  A    between atoms: _600  and  _601
REMARK  246  A    between atoms: _604  and  _606
REMARK  247  A    between atoms: _606  and  _607
REMARK  248  A    between atoms: _606  and  _609
REMARK  249  A    between atoms: _609  and  _610
REMARK  250  A    between atoms: _616  and  _618
REMARK  251  A    between atoms: _618  and  _619
REMARK  252  A    between atoms: _618  and  _621
REMARK  253  A    between atoms: _621  and  _622
REMARK  254  A    between atoms: _628  and  _630
REMARK  255  A    between atoms: _630  and  _631
REMARK  256  A    between atoms: _630  and  _633
REMARK  257  A    between atoms: _633  and  _634
REMARK  258  A    between atoms: _637  and  _639
REMARK  259  A    between atoms: _639  and  _640
REMARK  260  A    between atoms: _639  and  _642
REMARK  261  A    between atoms: _642  and  _643
REMARK  262  A    between atoms: _648  and  _649
REMARK  263  A    between atoms: _651  and  _653
REMARK  264  A    between atoms: _653  and  _654
REMARK  265  A    between atoms: _657  and  _659
REMARK  266  A    between atoms: _659  and  _660
REMARK  267  A    between atoms: _659  and  _662
REMARK  268  A    between atoms: _662  and  _663
REMARK  269  A    between atoms: _663  and  _664
REMARK  270  A    between atoms: _670  and  _671
REMARK  271  A    between atoms: _676  and  _678
REMARK  272  A    between atoms: _678  and  _679
REMARK  273  A    between atoms: _678  and  _681
REMARK  274  A    between atoms: _681  and  _682
REMARK  275  A    between atoms: _685  and  _687
REMARK  276  A    between atoms: _687  and  _688
REMARK  277  A    between atoms: _687  and  _690
REMARK  278  A    between atoms: _690  and  _691
REMARK  279  A    between atoms: _691  and  _692
REMARK  280  A    between atoms: _695  and  _697
REMARK  281  A    between atoms: _697  and  _698
REMARK  282  A    between atoms: _697  and  _700
REMARK  283  A    between atoms: _703  and  _705
REMARK  284  A    between atoms: _705  and  _706
REMARK  285  A    between atoms: _705  and  _708
REMARK  286  A    between atoms: _708  and  _709
REMARK  287  A    between atoms: _709  and  _710
REMARK                            x       y       z     vdW  Elec       q    Type
REMARK                         _______ _______ _______ _____ _____    ______ ____
ROOT
ATOM      1  O   HOH     1      19.455 104.485  29.336  0.00  0.00    +0.000 OA
ENDROOT
TORSDOF 0
REMARK  Name = ../refined-set-2016/5tmp/5tmp_pocket.pdb
REMARK  287 active torsions:
REMARK  status: ('A' for Active; 'I' for Inactive)
REMARK    1  A    between atoms: _1  and  _3
REMARK    2  A    between atoms: _3  and  _4
REMARK    3  A    between atoms: _3  and  _6
REMARK    4  A    between atoms: _6  and  _7
REMARK    5  A    between atoms: _10  and  _12
REMARK    6  A    between atoms: _12  and  _13
REMARK    7  A    between atoms: _12  and  _15
REMARK    8  A    between atoms: _15  and  _16
REMARK    9  A    between atoms: _16  and  _17
REMARK   10  A    between atoms: _20  and  _22
REMARK   11  A    between atoms: _22  and  _23
REMARK   12  A    between atoms: _25  and  _27
REMARK   13  A    between atoms: _27  and  _28
REMARK   14  A    between atoms: _27  and  _30
REMARK   15  A    between atoms: _30  and  _31
REMARK   16  A    between atoms: _34  and  _36
REMARK   17  A    between atoms: _36  and  _37
REMARK   18  A    between atoms: _36  and  _39
REMARK   19  A    between atoms: _39  and  _40
REMARK   20  A    between atoms: _40  and  _41
REMARK   21  A    between atoms: _44  and  _46
REMARK   22  A    between atoms: _46  and  _47
REMARK   23  A    between atoms: _49  and  _51
REMARK   24  A    between atoms: _51  and  _52
REMARK   25  A    between atoms: _55  and  _57
REMARK   26  A    between atoms: _57  and  _58
REMARK   27  A    between atoms: _60  and  _62
REMARK   28  A    between atoms: _62  and  _63
REMARK   29  A    between atoms: _62  and  _65
REMARK   30  A    between atoms: _65  and  _66
REMARK   31  A    between atoms: _66  and  _67
REMARK   32  A    between atoms: _67  and  _68
REMARK   33  A    between atoms: _68  and  _69
REMARK   34  A    between atoms: _73  and  _75
REMARK   35  A    between atoms: _75  and  _76
REMARK   36  A    between atoms: _75  and  _78
REMARK   37  A    between atoms: _78  and  _79
REMARK   38  A    between atoms: _82  and  _84
REMARK   39  A    between atoms: _84  and  _85
REMARK   40  A    between atoms: _84  and  _87
REMARK   41  A    between atoms: _87  and  _88
REMARK   42  A    between atoms: _91  and  _93
REMARK   43  A    between atoms: _93  and  _94
REMARK   44  A    between atoms: _97  and  _99
REMARK   45  A    between atoms: _99  and  _100
REMARK   46  A    between atoms: _99  and  _102
REMARK   47  A    between atoms: _102  and  _103
REMARK   48  A    between atoms: _103  and  _104
REMARK   49  A    between atoms: _104  and  _105
REMARK   50  A    between atoms: _114  and  _116
REMARK   51  A    between atoms: _116  and  _117
REMARK   52  A    between atoms: _116  and  _119
REMARK   53  A    between atoms: _119  and  _120
REMARK   54  A    between atoms: _120  and  _121
REMARK   55  A    between atoms: _121  and  _122
REMARK   56  A    between atoms: _131  and  _133
REMARK   57  A    between atoms: _133  and  _134
REMARK   58  A    between atoms: _133  and  _136
REMARK   59  A    between atoms: _136  and  _137
REMARK   60  A    between atoms: _137  and  _138
REMARK   61  A    between atoms: _142  and  _143
REMARK   62  A    between atoms: _148  and  _150
REMARK   63  A    between atoms: _150  and  _151
REMARK   64  A    between atoms: _153  and  _155
REMARK   65  A    between atoms: _155  and  _156
REMARK   66  A    between atoms: _155  and  _158
REMARK   67  A    between atoms: _158  and  _159
REMARK   68  A    between atoms: _159  and  _160
REMARK   69  A    between atoms: _160  and  _161
REMARK   70  A    between atoms: _170  and  _172
REMARK   71  A    between atoms: _172  and  _173
REMARK   72  A    between atoms: _172  and  _175
REMARK   73  A    between atoms: _175  and  _176
REMARK   74  A    between atoms: _179  and  _181
REMARK   75  A    between atoms: _181  and  _182
REMARK   76  A    between atoms: _181  and  _184
REMARK   77  A    between atoms: _184  and  _185
REMARK   78  A    between atoms: _188  and  _190
REMARK   79  A    between atoms: _190  and  _191
REMARK   80  A    between atoms: _190  and  _193
REMARK   81  A    between atoms: _193  and  _194
REMARK   82  A    between atoms: _194  and  _195
REMARK   83  A    between atoms: _198  and  _200
REMARK   84  A    between atoms: _200  and  _201
REMARK   85  A    between atoms: _200  and  _203
REMARK   86  A    between atoms: _206  and  _208
REMARK   87  A    between atoms: _208  and  _209
REMARK   88  A    between atoms: _208  and  _211
REMARK   89  A    between atoms: _211  and  _212
REMARK   90  A    between atoms: _212  and  _213
REMARK   91  A    between atoms: _215  and  _217
REMARK   92  A    between atoms: _217  and  _218
REMARK   93  A    between atoms: _217  and  _220
REMARK   94  A    between atoms: _220  and  _221
REMARK   95  A    between atoms: _227  and  _229
REMARK   96  A    between atoms: _229  and  _230
REMARK   97  A    between atoms: _229  and  _232
REMARK   98  A    between atoms: _232  and  _233
REMARK   99  A    between atoms: _238  and  _239
REMARK  100  A    between atoms: _241  and  _243
REMARK  101  A    between atoms: _243  and  _244
REMARK  102  A    between atoms: _247  and  _249
REMARK  103  A    between atoms: _249  and  _250
REMARK  104  A    between atoms: _249  and  _252
REMARK  105  A    between atoms: _252  and  _253
REMARK  106  A    between atoms: _253  and  _254
REMARK  107  A    between atoms: _254  and  _255
REMARK  108  A    between atoms: _264  and  _266
REMARK  109  A    between atoms: _266  and  _267
REMARK  110  A    between atoms: _266  and  _269
REMARK  111  A    between atoms: _269  and  _270
REMARK  112  A    between atoms: _273  and  _275
REMARK  113  A    between atoms: _275  and  _276
REMARK  114  A    between atoms: _275  and  _278
REMARK  115  A    between atoms: _278  and  _279
REMARK  116  A    between atoms: _279  and  _280
REMARK  117  A    between atoms: _280  and  _281
REMARK  118  A    between atoms: _290  and  _292
REMARK  119  A    between atoms: _292  and  _293
REMARK  120  A    between atoms: _292  and  _295
REMARK  121  A    between atoms: _295  and  _296
REMARK  122  A    between atoms: _301  and  _303
REMARK  123  A    between atoms: _303  and  _304
REMARK  124  A    between atoms: _303  and  _306
REMARK  125  A    between atoms: _306  and  _307
REMARK  126  A    between atoms: _310  and  _312
REMARK  127  A    between atoms: _312  and  _313
REMARK  128  A    between atoms: _312  and  _315
REMARK  129  A    between atoms: _315  and  _316
REMARK  130  A    between atoms: _319  and  _321
REMARK  131  A    between atoms: _321  and  _322
REMARK  132  A    between atoms: _321  and  _324
REMARK  133  A    between atoms: _324  and  _325
REMARK  134  A    between atoms: _327  and  _329
REMARK  135  A    between atoms: _329  and  _330
REMARK  136  A    between atoms: _329  and  _332
REMARK  137  A    between atoms: _332  and  _333
REMARK  138  A    between atoms: _336  and  _338
REMARK  139  A    between atoms: _338  and  _339
REMARK  140  A    between atoms: _338  and  _341
REMARK  141  A    between atoms: _341  and  _342
REMARK  142  A    between atoms: _342  and  _343
REMARK  143  A    between atoms: _348  and  _350
REMARK  144  A    between atoms: _350  and  _351
REMARK  145  A    between atoms: _354  and  _356
REMARK  146  A    between atoms: _356  and  _357
REMARK  147  A    between atoms: _356  and  _359
REMARK  148  A    between atoms: _359  and  _360
REMARK  149  A    between atoms: _365  and  _366
REMARK  150  A    between atoms: _368  and  _370
REMARK  151  A    between atoms: _370  and  _371
REMARK  152  A    between atoms: _370  and  _373
REMARK  153  A    between atoms: _373  and  _374
REMARK  154  A    between atoms: _374  and  _375
REMARK  155  A    between atoms: _380  and  _382
REMARK  156  A    between atoms: _382  and  _383
REMARK  157  A    between atoms: _385  and  _387
REMARK  158  A    between atoms: _387  and  _388
REMARK  159  A    between atoms: _390  and  _392
REMARK  160  A    between atoms: _392  and  _393
REMARK  161  A    between atoms: _392  and  _395
REMARK  162  A    between atoms: _395  and  _396
REMARK  163  A    between atoms: _396  and  _397
REMARK  164  A    between atoms: _397  and  _398
REMARK  165  A    between atoms: _407  and  _409
REMARK  166  A    between atoms: _409  and  _410
REMARK  167  A    between atoms: _409  and  _412
REMARK  168  A    between atoms: _412  and  _413
REMARK  169  A    between atoms: _416  and  _418
REMARK  170  A    between atoms: _418  and  _419
REMARK  171  A    between atoms: _418  and  _421
REMARK  172  A    between atoms: _424  and  _426
REMARK  173  A    between atoms: _426  and  _427
REMARK  174  A    between atoms: _426  and  _429
REMARK  175  A    between atoms: _432  and  _434
REMARK  176  A    between atoms: _434  and  _435
REMARK  177  A    between atoms: _437  and  _439
REMARK  178  A    between atoms: _439  and  _440
REMARK  179  A    between atoms: _439  and  _442
REMARK  180  A    between atoms: _442  and  _443
REMARK  181  A    between atoms: _446  and  _448
REMARK  182  A    between atoms: _448  and  _449
REMARK  183  A    between atoms: _448  and  _451
REMARK  184  A    between atoms: _451  and  _452
REMARK  185  A    between atoms: _452  and  _453
REMARK  186  A    between atoms: _453  and  _454
REMARK  187  A    between atoms: _454  and  _455
REMARK  188  A    between atoms: _459  and  _461
REMARK  189  A    between atoms: _461  and  _462
REMARK  190  A    between atoms: _461  and  _464
REMARK  191  A    between atoms: _464  and  _465
REMARK  192  A    between atoms: _465  and  _466
REMARK  193  A    between atoms: _466  and  _467
REMARK  194  A    between atoms: _476  and  _478
REMARK  195  A    between atoms: _478  and  _479
REMARK  196  A    between atoms: _482  and  _484
REMARK  197  A    between atoms: _484  and  _485
REMARK  198  A    between atoms: _484  and  _487
REMARK  199  A    between atoms: _487  and  _488
REMARK  200  A    between atoms: _488  and  _489
REMARK  201  A    between atoms: _489  and  _490
REMARK  202  A    between atoms: _499  and  _501
REMARK  203  A    between atoms: _501  and  _502
REMARK  204  A    between atoms: _505  and  _507
REMARK  205  A    between atoms: _507  and  _508
REMARK  206  A    between atoms: _507  and  _510
REMARK  207  A    between atoms: _510  and  _511
REMARK  208  A    between atoms: _511  and  _512
REMARK  209  A    between atoms: _512  and  _513
REMARK  210  A    between atoms: _522  and  _524
REMARK  211  A    between atoms: _524  and  _525
REMARK  212  A    between atoms: _527  and  _529
REMARK  213  A    between atoms: _529  and  _530
REMARK  214  A    between atoms: _529  and  _532
REMARK  215  A    between atoms: _532  and  _533
REMARK  216  A    between atoms: _533  and  _534
REMARK  217  A    between atoms: _537  and  _539
REMARK  218  A    between atoms: _539  and  _540
REMARK  219  A    between atoms: _539  and  _542
REMARK  220  A    between atoms: _542  and  _543
REMARK  221  A    between atoms: _546  and  _548
REMARK  222  A    between atoms: _548  and  _549
REMARK  223  A    between atoms: _548  and  _551
REMARK  224  A    between atoms: _551  and  _552
REMARK  225  A    between atoms: _552  and  _553
REMARK  226  A    between atoms: _553  and  _554
REMARK  227  A    between atoms: _563  and  _565
REMARK  228  A    between atoms: _565  and  _566
REMARK  229  A    between atoms: _565  and  _568
REMARK  230  A    between atoms: _568  and  _569
REMARK  231  A    between atoms: _572  and  _574
REMARK  232  A    between atoms: _574  and  _575
REMARK  233  A    between atoms: _574  and  _577
REMARK  234  A    between atoms: _577  and  _578
REMARK  235  A    between atoms: _578  and  _579
REMARK  236  A    between atoms: _582  and  _584
REMARK  237  A    between atoms: _584  and  _585
REMARK  238  A    between atoms: _584  and  _587
REMARK  239  A    between atoms: _587  and  _588
REMARK  240  A    between atoms: _588  and  _589
REMARK  241  A    between atoms: _594  and  _596
REMARK  242  A    between atoms: _596  and  _597
REMARK  243  A    between atoms: _596  and  _599
REMARK  244  A    between atoms: _599  and  _600
REMARK  245  A    between atoms: _600  and  _601
REMARK  246  A    between atoms: _604  and  _606
REMARK  247  A    between atoms: _606  and  _607
REMARK  248  A    between atoms: _606  and  _609
REMARK  249  A    between atoms: _609  and  _610
REMARK  250  A    between atoms: _616  and  _618
REMARK  251  A    between atoms: _618  and  _619
REMARK  252  A    between atoms: _618  and  _621
REMARK  253  A    between atoms: _621  and  _622
REMARK  254  A    between atoms: _628  and  _630
REMARK  255  A    between atoms: _630  and  _631
REMARK  256  A    between atoms: _630  and  _633
REMARK  257  A    between atoms: _633  and  _634
REMARK  258  A    between atoms: _637  and  _639
REMARK  259  A    between atoms: _639  and  _640
REMARK  260  A    between atoms: _639  and  _642
REMARK  261  A    between atoms: _642  and  _643
REMARK  262  A    between atoms: _648  and  _649
REMARK  263  A    between atoms: _651  and  _653
REMARK  264  A    between atoms: _653  and  _654
REMARK  265  A    between atoms: _657  and  _659
REMARK  266  A    between atoms: _659  and  _660
REMARK  267  A    between atoms: _659  and  _662
REMARK  268  A    between atoms: _662  and  _663
REMARK  269  A    between atoms: _663  and  _664
REMARK  270  A    between atoms: _670  and  _671
REMARK  271  A    between atoms: _676  and  _678
REMARK  272  A    between atoms: _678  and  _679
REMARK  273  A    between atoms: _678  and  _681
REMARK  274  A    between atoms: _681  and  _682
REMARK  275  A    between atoms: _685  and  _687
REMARK  276  A    between atoms: _687  and  _688
REMARK  277  A    between atoms: _687  and  _690
REMARK  278  A    between atoms: _690  and  _691
REMARK  279  A    between atoms: _691  and  _692
REMARK  280  A    between atoms: _695  and  _697
REMARK  281  A    between atoms: _697  and  _698
REMARK  282  A    between atoms: _697  and  _700
REMARK  283  A    between atoms: _703  and  _705
REMARK  284  A    between atoms: _705  and  _706
REMARK  285  A    between atoms: _705  and  _708
REMARK  286  A    between atoms: _708  and  _709
REMARK  287  A    between atoms: _709  and  _710
REMARK                            x       y       z     vdW  Elec       q    Type
REMARK                         _______ _______ _______ _____ _____    ______ ____
ROOT
ATOM      1  O   HOH     1      22.719 109.029  24.288  0.00  0.00    +0.000 OA
ENDROOT
TORSDOF 0
REMARK  Name = ../refined-set-2016/5tmp/5tmp_pocket.pdb
REMARK  287 active torsions:
REMARK  status: ('A' for Active; 'I' for Inactive)
REMARK    1  A    between atoms: _1  and  _3
REMARK    2  A    between atoms: _3  and  _4
REMARK    3  A    between atoms: _3  and  _6
REMARK    4  A    between atoms: _6  and  _7
REMARK    5  A    between atoms: _10  and  _12
REMARK    6  A    between atoms: _12  and  _13
REMARK    7  A    between atoms: _12  and  _15
REMARK    8  A    between atoms: _15  and  _16
REMARK    9  A    between atoms: _16  and  _17
REMARK   10  A    between atoms: _20  and  _22
REMARK   11  A    between atoms: _22  and  _23
REMARK   12  A    between atoms: _25  and  _27
REMARK   13  A    between atoms: _27  and  _28
REMARK   14  A    between atoms: _27  and  _30
REMARK   15  A    between atoms: _30  and  _31
REMARK   16  A    between atoms: _34  and  _36
REMARK   17  A    between atoms: _36  and  _37
REMARK   18  A    between atoms: _36  and  _39
REMARK   19  A    between atoms: _39  and  _40
REMARK   20  A    between atoms: _40  and  _41
REMARK   21  A    between atoms: _44  and  _46
REMARK   22  A    between atoms: _46  and  _47
REMARK   23  A    between atoms: _49  and  _51
REMARK   24  A    between atoms: _51  and  _52
REMARK   25  A    between atoms: _55  and  _57
REMARK   26  A    between atoms: _57  and  _58
REMARK   27  A    between atoms: _60  and  _62
REMARK   28  A    between atoms: _62  and  _63
REMARK   29  A    between atoms: _62  and  _65
REMARK   30  A    between atoms: _65  and  _66
REMARK   31  A    between atoms: _66  and  _67
REMARK   32  A    between atoms: _67  and  _68
REMARK   33  A    between atoms: _68  and  _69
REMARK   34  A    between atoms: _73  and  _75
REMARK   35  A    between atoms: _75  and  _76
REMARK   36  A    between atoms: _75  and  _78
REMARK   37  A    between atoms: _78  and  _79
REMARK   38  A    between atoms: _82  and  _84
REMARK   39  A    between atoms: _84  and  _85
REMARK   40  A    between atoms: _84  and  _87
REMARK   41  A    between atoms: _87  and  _88
REMARK   42  A    between atoms: _91  and  _93
REMARK   43  A    between atoms: _93  and  _94
REMARK   44  A    between atoms: _97  and  _99
REMARK   45  A    between atoms: _99  and  _100
REMARK   46  A    between atoms: _99  and  _102
REMARK   47  A    between atoms: _102  and  _103
REMARK   48  A    between atoms: _103  and  _104
REMARK   49  A    between atoms: _104  and  _105
REMARK   50  A    between atoms: _114  and  _116
REMARK   51  A    between atoms: _116  and  _117
REMARK   52  A    between atoms: _116  and  _119
REMARK   53  A    between atoms: _119  and  _120
REMARK   54  A    between atoms: _120  and  _121
REMARK   55  A    between atoms: _121  and  _122
REMARK   56  A    between atoms: _131  and  _133
REMARK   57  A    between atoms: _133  and  _134
REMARK   58  A    between atoms: _133  and  _136
REMARK   59  A    between atoms: _136  and  _137
REMARK   60  A    between atoms: _137  and  _138
REMARK   61  A    between atoms: _142  and  _143
REMARK   62  A    between atoms: _148  and  _150
REMARK   63  A    between atoms: _150  and  _151
REMARK   64  A    between atoms: _153  and  _155
REMARK   65  A    between atoms: _155  and  _156
REMARK   66  A    between atoms: _155  and  _158
REMARK   67  A    between atoms: _158  and  _159
REMARK   68  A    between atoms: _159  and  _160
REMARK   69  A    between atoms: _160  and  _161
REMARK   70  A    between atoms: _170  and  _172
REMARK   71  A    between atoms: _172  and  _173
REMARK   72  A    between atoms: _172  and  _175
REMARK   73  A    between atoms: _175  and  _176
REMARK   74  A    between atoms: _179  and  _181
REMARK   75  A    between atoms: _181  and  _182
REMARK   76  A    between atoms: _181  and  _184
REMARK   77  A    between atoms: _184  and  _185
REMARK   78  A    between atoms: _188  and  _190
REMARK   79  A    between atoms: _190  and  _191
REMARK   80  A    between atoms: _190  and  _193
REMARK   81  A    between atoms: _193  and  _194
REMARK   82  A    between atoms: _194  and  _195
REMARK   83  A    between atoms: _198  and  _200
REMARK   84  A    between atoms: _200  and  _201
REMARK   85  A    between atoms: _200  and  _203
REMARK   86  A    between atoms: _206  and  _208
REMARK   87  A    between atoms: _208  and  _209
REMARK   88  A    between atoms: _208  and  _211
REMARK   89  A    between atoms: _211  and  _212
REMARK   90  A    between atoms: _212  and  _213
REMARK   91  A    between atoms: _215  and  _217
REMARK   92  A    between atoms: _217  and  _218
REMARK   93  A    between atoms: _217  and  _220
REMARK   94  A    between atoms: _220  and  _221
REMARK   95  A    between atoms: _227  and  _229
REMARK   96  A    between atoms: _229  and  _230
REMARK   97  A    between atoms: _229  and  _232
REMARK   98  A    between atoms: _232  and  _233
REMARK   99  A    between atoms: _238  and  _239
REMARK  100  A    between atoms: _241  and  _243
REMARK  101  A    between atoms: _243  and  _244
REMARK  102  A    between atoms: _247  and  _249
REMARK  103  A    between atoms: _249  and  _250
REMARK  104  A    between atoms: _249  and  _252
REMARK  105  A    between atoms: _252  and  _253
REMARK  106  A    between atoms: _253  and  _254
REMARK  107  A    between atoms: _254  and  _255
REMARK  108  A    between atoms: _264  and  _266
REMARK  109  A    between atoms: _266  and  _267
REMARK  110  A    between atoms: _266  and  _269
REMARK  111  A    between atoms: _269  and  _270
REMARK  112  A    between atoms: _273  and  _275
REMARK  113  A    between atoms: _275  and  _276
REMARK  114  A    between atoms: _275  and  _278
REMARK  115  A    between atoms: _278  and  _279
REMARK  116  A    between atoms: _279  and  _280
REMARK  117  A    between atoms: _280  and  _281
REMARK  118  A    between atoms: _290  and  _292
REMARK  119  A    between atoms: _292  and  _293
REMARK  120  A    between atoms: _292  and  _295
REMARK  121  A    between atoms: _295  and  _296
REMARK  122  A    between atoms: _301  and  _303
REMARK  123  A    between atoms: _303  and  _304
REMARK  124  A    between atoms: _303  and  _306
REMARK  125  A    between atoms: _306  and  _307
REMARK  126  A    between atoms: _310  and  _312
REMARK  127  A    between atoms: _312  and  _313
REMARK  128  A    between atoms: _312  and  _315
REMARK  129  A    between atoms: _315  and  _316
REMARK  130  A    between atoms: _319  and  _321
REMARK  131  A    between atoms: _321  and  _322
REMARK  132  A    between atoms: _321  and  _324
REMARK  133  A    between atoms: _324  and  _325
REMARK  134  A    between atoms: _327  and  _329
REMARK  135  A    between atoms: _329  and  _330
REMARK  136  A    between atoms: _329  and  _332
REMARK  137  A    between atoms: _332  and  _333
REMARK  138  A    between atoms: _336  and  _338
REMARK  139  A    between atoms: _338  and  _339
REMARK  140  A    between atoms: _338  and  _341
REMARK  141  A    between atoms: _341  and  _342
REMARK  142  A    between atoms: _342  and  _343
REMARK  143  A    between atoms: _348  and  _350
REMARK  144  A    between atoms: _350  and  _351
REMARK  145  A    between atoms: _354  and  _356
REMARK  146  A    between atoms: _356  and  _357
REMARK  147  A    between atoms: _356  and  _359
REMARK  148  A    between atoms: _359  and  _360
REMARK  149  A    between atoms: _365  and  _366
REMARK  150  A    between atoms: _368  and  _370
REMARK  151  A    between atoms: _370  and  _371
REMARK  152  A    between atoms: _370  and  _373
REMARK  153  A    between atoms: _373  and  _374
REMARK  154  A    between atoms: _374  and  _375
REMARK  155  A    between atoms: _380  and  _382
REMARK  156  A    between atoms: _382  and  _383
REMARK  157  A    between atoms: _385  and  _387
REMARK  158  A    between atoms: _387  and  _388
REMARK  159  A    between atoms: _390  and  _392
REMARK  160  A    between atoms: _392  and  _393
REMARK  161  A    between atoms: _392  and  _395
REMARK  162  A    between atoms: _395  and  _396
REMARK  163  A    between atoms: _396  and  _397
REMARK  164  A    between atoms: _397  and  _398
REMARK  165  A    between atoms: _407  and  _409
REMARK  166  A    between atoms: _409  and  _410
REMARK  167  A    between atoms: _409  and  _412
REMARK  168  A    between atoms: _412  and  _413
REMARK  169  A    between atoms: _416  and  _418
REMARK  170  A    between atoms: _418  and  _419
REMARK  171  A    between atoms: _418  and  _421
REMARK  172  A    between atoms: _424  and  _426
REMARK  173  A    between atoms: _426  and  _427
REMARK  174  A    between atoms: _426  and  _429
REMARK  175  A    between atoms: _432  and  _434
REMARK  176  A    between atoms: _434  and  _435
REMARK  177  A    between atoms: _437  and  _439
REMARK  178  A    between atoms: _439  and  _440
REMARK  179  A    between atoms: _439  and  _442
REMARK  180  A    between atoms: _442  and  _443
REMARK  181  A    between atoms: _446  and  _448
REMARK  182  A    between atoms: _448  and  _449
REMARK  183  A    between atoms: _448  and  _451
REMARK  184  A    between atoms: _451  and  _452
REMARK  185  A    between atoms: _452  and  _453
REMARK  186  A    between atoms: _453  and  _454
REMARK  187  A    between atoms: _454  and  _455
REMARK  188  A    between atoms: _459  and  _461
REMARK  189  A    between atoms: _461  and  _462
REMARK  190  A    between atoms: _461  and  _464
REMARK  191  A    between atoms: _464  and  _465
REMARK  192  A    between atoms: _465  and  _466
REMARK  193  A    between atoms: _466  and  _467
REMARK  194  A    between atoms: _476  and  _478
REMARK  195  A    between atoms: _478  and  _479
REMARK  196  A    between atoms: _482  and  _484
REMARK  197  A    between atoms: _484  and  _485
REMARK  198  A    between atoms: _484  and  _487
REMARK  199  A    between atoms: _487  and  _488
REMARK  200  A    between atoms: _488  and  _489
REMARK  201  A    between atoms: _489  and  _490
REMARK  202  A    between atoms: _499  and  _501
REMARK  203  A    between atoms: _501  and  _502
REMARK  204  A    between atoms: _505  and  _507
REMARK  205  A    between atoms: _507  and  _508
REMARK  206  A    between atoms: _507  and  _510
REMARK  207  A    between atoms: _510  and  _511
REMARK  208  A    between atoms: _511  and  _512
REMARK  209  A    between atoms: _512  and  _513
REMARK  210  A    between atoms: _522  and  _524
REMARK  211  A    between atoms: _524  and  _525
REMARK  212  A    between atoms: _527  and  _529
REMARK  213  A    between atoms: _529  and  _530
REMARK  214  A    between atoms: _529  and  _532
REMARK  215  A    between atoms: _532  and  _533
REMARK  216  A    between atoms: _533  and  _534
REMARK  217  A    between atoms: _537  and  _539
REMARK  218  A    between atoms: _539  and  _540
REMARK  219  A    between atoms: _539  and  _542
REMARK  220  A    between atoms: _542  and  _543
REMARK  221  A    between atoms: _546  and  _548
REMARK  222  A    between atoms: _548  and  _549
REMARK  223  A    between atoms: _548  and  _551
REMARK  224  A    between atoms: _551  and  _552
REMARK  225  A    between atoms: _552  and  _553
REMARK  226  A    between atoms: _553  and  _554
REMARK  227  A    between atoms: _563  and  _565
REMARK  228  A    between atoms: _565  and  _566
REMARK  229  A    between atoms: _565  and  _568
REMARK  230  A    between atoms: _568  and  _569
REMARK  231  A    between atoms: _572  and  _574
REMARK  232  A    between atoms: _574  and  _575
REMARK  233  A    between atoms: _574  and  _577
REMARK  234  A    between atoms: _577  and  _578
REMARK  235  A    between atoms: _578  and  _579
REMARK  236  A    between atoms: _582  and  _584
REMARK  237  A    between atoms: _584  and  _585
REMARK  238  A    between atoms: _584  and  _587
REMARK  239  A    between atoms: _587  and  _588
REMARK  240  A    between atoms: _588  and  _589
REMARK  241  A    between atoms: _594  and  _596
REMARK  242  A    between atoms: _596  and  _597
REMARK  243  A    between atoms: _596  and  _599
REMARK  244  A    between atoms: _599  and  _600
REMARK  245  A    between atoms: _600  and  _601
REMARK  246  A    between atoms: _604  and  _606
REMARK  247  A    between atoms: _606  and  _607
REMARK  248  A    between atoms: _606  and  _609
REMARK  249  A    between atoms: _609  and  _610
REMARK  250  A    between atoms: _616  and  _618
REMARK  251  A    between atoms: _618  and  _619
REMARK  252  A    between atoms: _618  and  _621
REMARK  253  A    between atoms: _621  and  _622
REMARK  254  A    between atoms: _628  and  _630
REMARK  255  A    between atoms: _630  and  _631
REMARK  256  A    between atoms: _630  and  _633
REMARK  257  A    between atoms: _633  and  _634
REMARK  258  A    between atoms: _637  and  _639
REMARK  259  A    between atoms: _639  and  _640
REMARK  260  A    between atoms: _639  and  _642
REMARK  261  A    between atoms: _642  and  _643
REMARK  262  A    between atoms: _648  and  _649
REMARK  263  A    between atoms: _651  and  _653
REMARK  264  A    between atoms: _653  and  _654
REMARK  265  A    between atoms: _657  and  _659
REMARK  266  A    between atoms: _659  and  _660
REMARK  267  A    between atoms: _659  and  _662
REMARK  268  A    between atoms: _662  and  _663
REMARK  269  A    between atoms: _663  and  _664
REMARK  270  A    between atoms: _670  and  _671
REMARK  271  A    between atoms: _676  and  _678
REMARK  272  A    between atoms: _678  and  _679
REMARK  273  A    between atoms: _678  and  _681
REMARK  274  A    between atoms: _681  and  _682
REMARK  275  A    between atoms: _685  and  _687
REMARK  276  A    between atoms: _687  and  _688
REMARK  277  A    between atoms: _687  and  _690
REMARK  278  A    between atoms: _690  and  _691
REMARK  279  A    between atoms: _691  and  _692
REMARK  280  A    between atoms: _695  and  _697
REMARK  281  A    between atoms: _697  and  _698
REMARK  282  A    between atoms: _697  and  _700
REMARK  283  A    between atoms: _703  and  _705
REMARK  284  A    between atoms: _705  and  _706
REMARK  285  A    between atoms: _705  and  _708
REMARK  286  A    between atoms: _708  and  _709
REMARK  287  A    between atoms: _709  and  _710
REMARK                            x       y       z     vdW  Elec       q    Type
REMARK                         _______ _______ _______ _____ _____    ______ ____
ROOT
ATOM      1  O   HOH     1      23.738 106.490  23.058  0.00  0.00    +0.000 OA
ENDROOT
TORSDOF 0
REMARK  Name = ../refined-set-2016/5tmp/5tmp_pocket.pdb
REMARK  287 active torsions:
REMARK  status: ('A' for Active; 'I' for Inactive)
REMARK    1  A    between atoms: _1  and  _3
REMARK    2  A    between atoms: _3  and  _4
REMARK    3  A    between atoms: _3  and  _6
REMARK    4  A    between atoms: _6  and  _7
REMARK    5  A    between atoms: _10  and  _12
REMARK    6  A    between atoms: _12  and  _13
REMARK    7  A    between atoms: _12  and  _15
REMARK    8  A    between atoms: _15  and  _16
REMARK    9  A    between atoms: _16  and  _17
REMARK   10  A    between atoms: _20  and  _22
REMARK   11  A    between atoms: _22  and  _23
REMARK   12  A    between atoms: _25  and  _27
REMARK   13  A    between atoms: _27  and  _28
REMARK   14  A    between atoms: _27  and  _30
REMARK   15  A    between atoms: _30  and  _31
REMARK   16  A    between atoms: _34  and  _36
REMARK   17  A    between atoms: _36  and  _37
REMARK   18  A    between atoms: _36  and  _39
REMARK   19  A    between atoms: _39  and  _40
REMARK   20  A    between atoms: _40  and  _41
REMARK   21  A    between atoms: _44  and  _46
REMARK   22  A    between atoms: _46  and  _47
REMARK   23  A    between atoms: _49  and  _51
REMARK   24  A    between atoms: _51  and  _52
REMARK   25  A    between atoms: _55  and  _57
REMARK   26  A    between atoms: _57  and  _58
REMARK   27  A    between atoms: _60  and  _62
REMARK   28  A    between atoms: _62  and  _63
REMARK   29  A    between atoms: _62  and  _65
REMARK   30  A    between atoms: _65  and  _66
REMARK   31  A    between atoms: _66  and  _67
REMARK   32  A    between atoms: _67  and  _68
REMARK   33  A    between atoms: _68  and  _69
REMARK   34  A    between atoms: _73  and  _75
REMARK   35  A    between atoms: _75  and  _76
REMARK   36  A    between atoms: _75  and  _78
REMARK   37  A    between atoms: _78  and  _79
REMARK   38  A    between atoms: _82  and  _84
REMARK   39  A    between atoms: _84  and  _85
REMARK   40  A    between atoms: _84  and  _87
REMARK   41  A    between atoms: _87  and  _88
REMARK   42  A    between atoms: _91  and  _93
REMARK   43  A    between atoms: _93  and  _94
REMARK   44  A    between atoms: _97  and  _99
REMARK   45  A    between atoms: _99  and  _100
REMARK   46  A    between atoms: _99  and  _102
REMARK   47  A    between atoms: _102  and  _103
REMARK   48  A    between atoms: _103  and  _104
REMARK   49  A    between atoms: _104  and  _105
REMARK   50  A    between atoms: _114  and  _116
REMARK   51  A    between atoms: _116  and  _117
REMARK   52  A    between atoms: _116  and  _119
REMARK   53  A    between atoms: _119  and  _120
REMARK   54  A    between atoms: _120  and  _121
REMARK   55  A    between atoms: _121  and  _122
REMARK   56  A    between atoms: _131  and  _133
REMARK   57  A    between atoms: _133  and  _134
REMARK   58  A    between atoms: _133  and  _136
REMARK   59  A    between atoms: _136  and  _137
REMARK   60  A    between atoms: _137  and  _138
REMARK   61  A    between atoms: _142  and  _143
REMARK   62  A    between atoms: _148  and  _150
REMARK   63  A    between atoms: _150  and  _151
REMARK   64  A    between atoms: _153  and  _155
REMARK   65  A    between atoms: _155  and  _156
REMARK   66  A    between atoms: _155  and  _158
REMARK   67  A    between atoms: _158  and  _159
REMARK   68  A    between atoms: _159  and  _160
REMARK   69  A    between atoms: _160  and  _161
REMARK   70  A    between atoms: _170  and  _172
REMARK   71  A    between atoms: _172  and  _173
REMARK   72  A    between atoms: _172  and  _175
REMARK   73  A    between atoms: _175  and  _176
REMARK   74  A    between atoms: _179  and  _181
REMARK   75  A    between atoms: _181  and  _182
REMARK   76  A    between atoms: _181  and  _184
REMARK   77  A    between atoms: _184  and  _185
REMARK   78  A    between atoms: _188  and  _190
REMARK   79  A    between atoms: _190  and  _191
REMARK   80  A    between atoms: _190  and  _193
REMARK   81  A    between atoms: _193  and  _194
REMARK   82  A    between atoms: _194  and  _195
REMARK   83  A    between atoms: _198  and  _200
REMARK   84  A    between atoms: _200  and  _201
REMARK   85  A    between atoms: _200  and  _203
REMARK   86  A    between atoms: _206  and  _208
REMARK   87  A    between atoms: _208  and  _209
REMARK   88  A    between atoms: _208  and  _211
REMARK   89  A    between atoms: _211  and  _212
REMARK   90  A    between atoms: _212  and  _213
REMARK   91  A    between atoms: _215  and  _217
REMARK   92  A    between atoms: _217  and  _218
REMARK   93  A    between atoms: _217  and  _220
REMARK   94  A    between atoms: _220  and  _221
REMARK   95  A    between atoms: _227  and  _229
REMARK   96  A    between atoms: _229  and  _230
REMARK   97  A    between atoms: _229  and  _232
REMARK   98  A    between atoms: _232  and  _233
REMARK   99  A    between atoms: _238  and  _239
REMARK  100  A    between atoms: _241  and  _243
REMARK  101  A    between atoms: _243  and  _244
REMARK  102  A    between atoms: _247  and  _249
REMARK  103  A    between atoms: _249  and  _250
REMARK  104  A    between atoms: _249  and  _252
REMARK  105  A    between atoms: _252  and  _253
REMARK  106  A    between atoms: _253  and  _254
REMARK  107  A    between atoms: _254  and  _255
REMARK  108  A    between atoms: _264  and  _266
REMARK  109  A    between atoms: _266  and  _267
REMARK  110  A    between atoms: _266  and  _269
REMARK  111  A    between atoms: _269  and  _270
REMARK  112  A    between atoms: _273  and  _275
REMARK  113  A    between atoms: _275  and  _276
REMARK  114  A    between atoms: _275  and  _278
REMARK  115  A    between atoms: _278  and  _279
REMARK  116  A    between atoms: _279  and  _280
REMARK  117  A    between atoms: _280  and  _281
REMARK  118  A    between atoms: _290  and  _292
REMARK  119  A    between atoms: _292  and  _293
REMARK  120  A    between atoms: _292  and  _295
REMARK  121  A    between atoms: _295  and  _296
REMARK  122  A    between atoms: _301  and  _303
REMARK  123  A    between atoms: _303  and  _304
REMARK  124  A    between atoms: _303  and  _306
REMARK  125  A    between atoms: _306  and  _307
REMARK  126  A    between atoms: _310  and  _312
REMARK  127  A    between atoms: _312  and  _313
REMARK  128  A    between atoms: _312  and  _315
REMARK  129  A    between atoms: _315  and  _316
REMARK  130  A    between atoms: _319  and  _321
REMARK  131  A    between atoms: _321  and  _322
REMARK  132  A    between atoms: _321  and  _324
REMARK  133  A    between atoms: _324  and  _325
REMARK  134  A    between atoms: _327  and  _329
REMARK  135  A    between atoms: _329  and  _330
REMARK  136  A    between atoms: _329  and  _332
REMARK  137  A    between atoms: _332  and  _333
REMARK  138  A    between atoms: _336  and  _338
REMARK  139  A    between atoms: _338  and  _339
REMARK  140  A    between atoms: _338  and  _341
REMARK  141  A    between atoms: _341  and  _342
REMARK  142  A    between atoms: _342  and  _343
REMARK  143  A    between atoms: _348  and  _350
REMARK  144  A    between atoms: _350  and  _351
REMARK  145  A    between atoms: _354  and  _356
REMARK  146  A    between atoms: _356  and  _357
REMARK  147  A    between atoms: _356  and  _359
REMARK  148  A    between atoms: _359  and  _360
REMARK  149  A    between atoms: _365  and  _366
REMARK  150  A    between atoms: _368  and  _370
REMARK  151  A    between atoms: _370  and  _371
REMARK  152  A    between atoms: _370  and  _373
REMARK  153  A    between atoms: _373  and  _374
REMARK  154  A    between atoms: _374  and  _375
REMARK  155  A    between atoms: _380  and  _382
REMARK  156  A    between atoms: _382  and  _383
REMARK  157  A    between atoms: _385  and  _387
REMARK  158  A    between atoms: _387  and  _388
REMARK  159  A    between atoms: _390  and  _392
REMARK  160  A    between atoms: _392  and  _393
REMARK  161  A    between atoms: _392  and  _395
REMARK  162  A    between atoms: _395  and  _396
REMARK  163  A    between atoms: _396  and  _397
REMARK  164  A    between atoms: _397  and  _398
REMARK  165  A    between atoms: _407  and  _409
REMARK  166  A    between atoms: _409  and  _410
REMARK  167  A    between atoms: _409  and  _412
REMARK  168  A    between atoms: _412  and  _413
REMARK  169  A    between atoms: _416  and  _418
REMARK  170  A    between atoms: _418  and  _419
REMARK  171  A    between atoms: _418  and  _421
REMARK  172  A    between atoms: _424  and  _426
REMARK  173  A    between atoms: _426  and  _427
REMARK  174  A    between atoms: _426  and  _429
REMARK  175  A    between atoms: _432  and  _434
REMARK  176  A    between atoms: _434  and  _435
REMARK  177  A    between atoms: _437  and  _439
REMARK  178  A    between atoms: _439  and  _440
REMARK  179  A    between atoms: _439  and  _442
REMARK  180  A    between atoms: _442  and  _443
REMARK  181  A    between atoms: _446  and  _448
REMARK  182  A    between atoms: _448  and  _449
REMARK  183  A    between atoms: _448  and  _451
REMARK  184  A    between atoms: _451  and  _452
REMARK  185  A    between atoms: _452  and  _453
REMARK  186  A    between atoms: _453  and  _454
REMARK  187  A    between atoms: _454  and  _455
REMARK  188  A    between atoms: _459  and  _461
REMARK  189  A    between atoms: _461  and  _462
REMARK  190  A    between atoms: _461  and  _464
REMARK  191  A    between atoms: _464  and  _465
REMARK  192  A    between atoms: _465  and  _466
REMARK  193  A    between atoms: _466  and  _467
REMARK  194  A    between atoms: _476  and  _478
REMARK  195  A    between atoms: _478  and  _479
REMARK  196  A    between atoms: _482  and  _484
REMARK  197  A    between atoms: _484  and  _485
REMARK  198  A    between atoms: _484  and  _487
REMARK  199  A    between atoms: _487  and  _488
REMARK  200  A    between atoms: _488  and  _489
REMARK  201  A    between atoms: _489  and  _490
REMARK  202  A    between atoms: _499  and  _501
REMARK  203  A    between atoms: _501  and  _502
REMARK  204  A    between atoms: _505  and  _507
REMARK  205  A    between atoms: _507  and  _508
REMARK  206  A    between atoms: _507  and  _510
REMARK  207  A    between atoms: _510  and  _511
REMARK  208  A    between atoms: _511  and  _512
REMARK  209  A    between atoms: _512  and  _513
REMARK  210  A    between atoms: _522  and  _524
REMARK  211  A    between atoms: _524  and  _525
REMARK  212  A    between atoms: _527  and  _529
REMARK  213  A    between atoms: _529  and  _530
REMARK  214  A    between atoms: _529  and  _532
REMARK  215  A    between atoms: _532  and  _533
REMARK  216  A    between atoms: _533  and  _534
REMARK  217  A    between atoms: _537  and  _539
REMARK  218  A    between atoms: _539  and  _540
REMARK  219  A    between atoms: _539  and  _542
REMARK  220  A    between atoms: _542  and  _543
REMARK  221  A    between atoms: _546  and  _548
REMARK  222  A    between atoms: _548  and  _549
REMARK  223  A    between atoms: _548  and  _551
REMARK  224  A    between atoms: _551  and  _552
REMARK  225  A    between atoms: _552  and  _553
REMARK  226  A    between atoms: _553  and  _554
REMARK  227  A    between atoms: _563  and  _565
REMARK  228  A    between atoms: _565  and  _566
REMARK  229  A    between atoms: _565  and  _568
REMARK  230  A    between atoms: _568  and  _569
REMARK  231  A    between atoms: _572  and  _574
REMARK  232  A    between atoms: _574  and  _575
REMARK  233  A    between atoms: _574  and  _577
REMARK  234  A    between atoms: _577  and  _578
REMARK  235  A    between atoms: _578  and  _579
REMARK  236  A    between atoms: _582  and  _584
REMARK  237  A    between atoms: _584  and  _585
REMARK  238  A    between atoms: _584  and  _587
REMARK  239  A    between atoms: _587  and  _588
REMARK  240  A    between atoms: _588  and  _589
REMARK  241  A    between atoms: _594  and  _596
REMARK  242  A    between atoms: _596  and  _597
REMARK  243  A    between atoms: _596  and  _599
REMARK  244  A    between atoms: _599  and  _600
REMARK  245  A    between atoms: _600  and  _601
REMARK  246  A    between atoms: _604  and  _606
REMARK  247  A    between atoms: _606  and  _607
REMARK  248  A    between atoms: _606  and  _609
REMARK  249  A    between atoms: _609  and  _610
REMARK  250  A    between atoms: _616  and  _618
REMARK  251  A    between atoms: _618  and  _619
REMARK  252  A    between atoms: _618  and  _621
REMARK  253  A    between atoms: _621  and  _622
REMARK  254  A    between atoms: _628  and  _630
REMARK  255  A    between atoms: _630  and  _631
REMARK  256  A    between atoms: _630  and  _633
REMARK  257  A    between atoms: _633  and  _634
REMARK  258  A    between atoms: _637  and  _639
REMARK  259  A    between atoms: _639  and  _640
REMARK  260  A    between atoms: _639  and  _642
REMARK  261  A    between atoms: _642  and  _643
REMARK  262  A    between atoms: _648  and  _649
REMARK  263  A    between atoms: _651  and  _653
REMARK  264  A    between atoms: _653  and  _654
REMARK  265  A    between atoms: _657  and  _659
REMARK  266  A    between atoms: _659  and  _660
REMARK  267  A    between atoms: _659  and  _662
REMARK  268  A    between atoms: _662  and  _663
REMARK  269  A    between atoms: _663  and  _664
REMARK  270  A    between atoms: _670  and  _671
REMARK  271  A    between atoms: _676  and  _678
REMARK  272  A    between atoms: _678  and  _679
REMARK  273  A    between atoms: _678  and  _681
REMARK  274  A    between atoms: _681  and  _682
REMARK  275  A    between atoms: _685  and  _687
REMARK  276  A    between atoms: _687  and  _688
REMARK  277  A    between atoms: _687  and  _690
REMARK  278  A    between atoms: _690  and  _691
REMARK  279  A    between atoms: _691  and  _692
REMARK  280  A    between atoms: _695  and  _697
REMARK  281  A    between atoms: _697  and  _698
REMARK  282  A    between atoms: _697  and  _700
REMARK  283  A    between atoms: _703  and  _705
REMARK  284  A    between atoms: _705  and  _706
REMARK  285  A    between atoms: _705  and  _708
REMARK  286  A    between atoms: _708  and  _709
REMARK  287  A    between atoms: _709  and  _710
REMARK                            x       y       z     vdW  Elec       q    Type
REMARK                         _______ _______ _______ _____ _____    ______ ____
ROOT
ATOM      1  O   HOH     1      20.959 118.884  16.376  0.00  0.00    +0.000 OA
ENDROOT
TORSDOF 0
REMARK  Name = ../refined-set-2016/5tmp/5tmp_pocket.pdb
REMARK  287 active torsions:
REMARK  status: ('A' for Active; 'I' for Inactive)
REMARK    1  A    between atoms: _1  and  _3
REMARK    2  A    between atoms: _3  and  _4
REMARK    3  A    between atoms: _3  and  _6
REMARK    4  A    between atoms: _6  and  _7
REMARK    5  A    between atoms: _10  and  _12
REMARK    6  A    between atoms: _12  and  _13
REMARK    7  A    between atoms: _12  and  _15
REMARK    8  A    between atoms: _15  and  _16
REMARK    9  A    between atoms: _16  and  _17
REMARK   10  A    between atoms: _20  and  _22
REMARK   11  A    between atoms: _22  and  _23
REMARK   12  A    between atoms: _25  and  _27
REMARK   13  A    between atoms: _27  and  _28
REMARK   14  A    between atoms: _27  and  _30
REMARK   15  A    between atoms: _30  and  _31
REMARK   16  A    between atoms: _34  and  _36
REMARK   17  A    between atoms: _36  and  _37
REMARK   18  A    between atoms: _36  and  _39
REMARK   19  A    between atoms: _39  and  _40
REMARK   20  A    between atoms: _40  and  _41
REMARK   21  A    between atoms: _44  and  _46
REMARK   22  A    between atoms: _46  and  _47
REMARK   23  A    between atoms: _49  and  _51
REMARK   24  A    between atoms: _51  and  _52
REMARK   25  A    between atoms: _55  and  _57
REMARK   26  A    between atoms: _57  and  _58
REMARK   27  A    between atoms: _60  and  _62
REMARK   28  A    between atoms: _62  and  _63
REMARK   29  A    between atoms: _62  and  _65
REMARK   30  A    between atoms: _65  and  _66
REMARK   31  A    between atoms: _66  and  _67
REMARK   32  A    between atoms: _67  and  _68
REMARK   33  A    between atoms: _68  and  _69
REMARK   34  A    between atoms: _73  and  _75
REMARK   35  A    between atoms: _75  and  _76
REMARK   36  A    between atoms: _75  and  _78
REMARK   37  A    between atoms: _78  and  _79
REMARK   38  A    between atoms: _82  and  _84
REMARK   39  A    between atoms: _84  and  _85
REMARK   40  A    between atoms: _84  and  _87
REMARK   41  A    between atoms: _87  and  _88
REMARK   42  A    between atoms: _91  and  _93
REMARK   43  A    between atoms: _93  and  _94
REMARK   44  A    between atoms: _97  and  _99
REMARK   45  A    between atoms: _99  and  _100
REMARK   46  A    between atoms: _99  and  _102
REMARK   47  A    between atoms: _102  and  _103
REMARK   48  A    between atoms: _103  and  _104
REMARK   49  A    between atoms: _104  and  _105
REMARK   50  A    between atoms: _114  and  _116
REMARK   51  A    between atoms: _116  and  _117
REMARK   52  A    between atoms: _116  and  _119
REMARK   53  A    between atoms: _119  and  _120
REMARK   54  A    between atoms: _120  and  _121
REMARK   55  A    between atoms: _121  and  _122
REMARK   56  A    between atoms: _131  and  _133
REMARK   57  A    between atoms: _133  and  _134
REMARK   58  A    between atoms: _133  and  _136
REMARK   59  A    between atoms: _136  and  _137
REMARK   60  A    between atoms: _137  and  _138
REMARK   61  A    between atoms: _142  and  _143
REMARK   62  A    between atoms: _148  and  _150
REMARK   63  A    between atoms: _150  and  _151
REMARK   64  A    between atoms: _153  and  _155
REMARK   65  A    between atoms: _155  and  _156
REMARK   66  A    between atoms: _155  and  _158
REMARK   67  A    between atoms: _158  and  _159
REMARK   68  A    between atoms: _159  and  _160
REMARK   69  A    between atoms: _160  and  _161
REMARK   70  A    between atoms: _170  and  _172
REMARK   71  A    between atoms: _172  and  _173
REMARK   72  A    between atoms: _172  and  _175
REMARK   73  A    between atoms: _175  and  _176
REMARK   74  A    between atoms: _179  and  _181
REMARK   75  A    between atoms: _181  and  _182
REMARK   76  A    between atoms: _181  and  _184
REMARK   77  A    between atoms: _184  and  _185
REMARK   78  A    between atoms: _188  and  _190
REMARK   79  A    between atoms: _190  and  _191
REMARK   80  A    between atoms: _190  and  _193
REMARK   81  A    between atoms: _193  and  _194
REMARK   82  A    between atoms: _194  and  _195
REMARK   83  A    between atoms: _198  and  _200
REMARK   84  A    between atoms: _200  and  _201
REMARK   85  A    between atoms: _200  and  _203
REMARK   86  A    between atoms: _206  and  _208
REMARK   87  A    between atoms: _208  and  _209
REMARK   88  A    between atoms: _208  and  _211
REMARK   89  A    between atoms: _211  and  _212
REMARK   90  A    between atoms: _212  and  _213
REMARK   91  A    between atoms: _215  and  _217
REMARK   92  A    between atoms: _217  and  _218
REMARK   93  A    between atoms: _217  and  _220
REMARK   94  A    between atoms: _220  and  _221
REMARK   95  A    between atoms: _227  and  _229
REMARK   96  A    between atoms: _229  and  _230
REMARK   97  A    between atoms: _229  and  _232
REMARK   98  A    between atoms: _232  and  _233
REMARK   99  A    between atoms: _238  and  _239
REMARK  100  A    between atoms: _241  and  _243
REMARK  101  A    between atoms: _243  and  _244
REMARK  102  A    between atoms: _247  and  _249
REMARK  103  A    between atoms: _249  and  _250
REMARK  104  A    between atoms: _249  and  _252
REMARK  105  A    between atoms: _252  and  _253
REMARK  106  A    between atoms: _253  and  _254
REMARK  107  A    between atoms: _254  and  _255
REMARK  108  A    between atoms: _264  and  _266
REMARK  109  A    between atoms: _266  and  _267
REMARK  110  A    between atoms: _266  and  _269
REMARK  111  A    between atoms: _269  and  _270
REMARK  112  A    between atoms: _273  and  _275
REMARK  113  A    between atoms: _275  and  _276
REMARK  114  A    between atoms: _275  and  _278
REMARK  115  A    between atoms: _278  and  _279
REMARK  116  A    between atoms: _279  and  _280
REMARK  117  A    between atoms: _280  and  _281
REMARK  118  A    between atoms: _290  and  _292
REMARK  119  A    between atoms: _292  and  _293
REMARK  120  A    between atoms: _292  and  _295
REMARK  121  A    between atoms: _295  and  _296
REMARK  122  A    between atoms: _301  and  _303
REMARK  123  A    between atoms: _303  and  _304
REMARK  124  A    between atoms: _303  and  _306
REMARK  125  A    between atoms: _306  and  _307
REMARK  126  A    between atoms: _310  and  _312
REMARK  127  A    between atoms: _312  and  _313
REMARK  128  A    between atoms: _312  and  _315
REMARK  129  A    between atoms: _315  and  _316
REMARK  130  A    between atoms: _319  and  _321
REMARK  131  A    between atoms: _321  and  _322
REMARK  132  A    between atoms: _321  and  _324
REMARK  133  A    between atoms: _324  and  _325
REMARK  134  A    between atoms: _327  and  _329
REMARK  135  A    between atoms: _329  and  _330
REMARK  136  A    between atoms: _329  and  _332
REMARK  137  A    between atoms: _332  and  _333
REMARK  138  A    between atoms: _336  and  _338
REMARK  139  A    between atoms: _338  and  _339
REMARK  140  A    between atoms: _338  and  _341
REMARK  141  A    between atoms: _341  and  _342
REMARK  142  A    between atoms: _342  and  _343
REMARK  143  A    between atoms: _348  and  _350
REMARK  144  A    between atoms: _350  and  _351
REMARK  145  A    between atoms: _354  and  _356
REMARK  146  A    between atoms: _356  and  _357
REMARK  147  A    between atoms: _356  and  _359
REMARK  148  A    between atoms: _359  and  _360
REMARK  149  A    between atoms: _365  and  _366
REMARK  150  A    between atoms: _368  and  _370
REMARK  151  A    between atoms: _370  and  _371
REMARK  152  A    between atoms: _370  and  _373
REMARK  153  A    between atoms: _373  and  _374
REMARK  154  A    between atoms: _374  and  _375
REMARK  155  A    between atoms: _380  and  _382
REMARK  156  A    between atoms: _382  and  _383
REMARK  157  A    between atoms: _385  and  _387
REMARK  158  A    between atoms: _387  and  _388
REMARK  159  A    between atoms: _390  and  _392
REMARK  160  A    between atoms: _392  and  _393
REMARK  161  A    between atoms: _392  and  _395
REMARK  162  A    between atoms: _395  and  _396
REMARK  163  A    between atoms: _396  and  _397
REMARK  164  A    between atoms: _397  and  _398
REMARK  165  A    between atoms: _407  and  _409
REMARK  166  A    between atoms: _409  and  _410
REMARK  167  A    between atoms: _409  and  _412
REMARK  168  A    between atoms: _412  and  _413
REMARK  169  A    between atoms: _416  and  _418
REMARK  170  A    between atoms: _418  and  _419
REMARK  171  A    between atoms: _418  and  _421
REMARK  172  A    between atoms: _424  and  _426
REMARK  173  A    between atoms: _426  and  _427
REMARK  174  A    between atoms: _426  and  _429
REMARK  175  A    between atoms: _432  and  _434
REMARK  176  A    between atoms: _434  and  _435
REMARK  177  A    between atoms: _437  and  _439
REMARK  178  A    between atoms: _439  and  _440
REMARK  179  A    between atoms: _439  and  _442
REMARK  180  A    between atoms: _442  and  _443
REMARK  181  A    between atoms: _446  and  _448
REMARK  182  A    between atoms: _448  and  _449
REMARK  183  A    between atoms: _448  and  _451
REMARK  184  A    between atoms: _451  and  _452
REMARK  185  A    between atoms: _452  and  _453
REMARK  186  A    between atoms: _453  and  _454
REMARK  187  A    between atoms: _454  and  _455
REMARK  188  A    between atoms: _459  and  _461
REMARK  189  A    between atoms: _461  and  _462
REMARK  190  A    between atoms: _461  and  _464
REMARK  191  A    between atoms: _464  and  _465
REMARK  192  A    between atoms: _465  and  _466
REMARK  193  A    between atoms: _466  and  _467
REMARK  194  A    between atoms: _476  and  _478
REMARK  195  A    between atoms: _478  and  _479
REMARK  196  A    between atoms: _482  and  _484
REMARK  197  A    between atoms: _484  and  _485
REMARK  198  A    between atoms: _484  and  _487
REMARK  199  A    between atoms: _487  and  _488
REMARK  200  A    between atoms: _488  and  _489
REMARK  201  A    between atoms: _489  and  _490
REMARK  202  A    between atoms: _499  and  _501
REMARK  203  A    between atoms: _501  and  _502
REMARK  204  A    between atoms: _505  and  _507
REMARK  205  A    between atoms: _507  and  _508
REMARK  206  A    between atoms: _507  and  _510
REMARK  207  A    between atoms: _510  and  _511
REMARK  208  A    between atoms: _511  and  _512
REMARK  209  A    between atoms: _512  and  _513
REMARK  210  A    between atoms: _522  and  _524
REMARK  211  A    between atoms: _524  and  _525
REMARK  212  A    between atoms: _527  and  _529
REMARK  213  A    between atoms: _529  and  _530
REMARK  214  A    between atoms: _529  and  _532
REMARK  215  A    between atoms: _532  and  _533
REMARK  216  A    between atoms: _533  and  _534
REMARK  217  A    between atoms: _537  and  _539
REMARK  218  A    between atoms: _539  and  _540
REMARK  219  A    between atoms: _539  and  _542
REMARK  220  A    between atoms: _542  and  _543
REMARK  221  A    between atoms: _546  and  _548
REMARK  222  A    between atoms: _548  and  _549
REMARK  223  A    between atoms: _548  and  _551
REMARK  224  A    between atoms: _551  and  _552
REMARK  225  A    between atoms: _552  and  _553
REMARK  226  A    between atoms: _553  and  _554
REMARK  227  A    between atoms: _563  and  _565
REMARK  228  A    between atoms: _565  and  _566
REMARK  229  A    between atoms: _565  and  _568
REMARK  230  A    between atoms: _568  and  _569
REMARK  231  A    between atoms: _572  and  _574
REMARK  232  A    between atoms: _574  and  _575
REMARK  233  A    between atoms: _574  and  _577
REMARK  234  A    between atoms: _577  and  _578
REMARK  235  A    between atoms: _578  and  _579
REMARK  236  A    between atoms: _582  and  _584
REMARK  237  A    between atoms: _584  and  _585
REMARK  238  A    between atoms: _584  and  _587
REMARK  239  A    between atoms: _587  and  _588
REMARK  240  A    between atoms: _588  and  _589
REMARK  241  A    between atoms: _594  and  _596
REMARK  242  A    between atoms: _596  and  _597
REMARK  243  A    between atoms: _596  and  _599
REMARK  244  A    between atoms: _599  and  _600
REMARK  245  A    between atoms: _600  and  _601
REMARK  246  A    between atoms: _604  and  _606
REMARK  247  A    between atoms: _606  and  _607
REMARK  248  A    between atoms: _606  and  _609
REMARK  249  A    between atoms: _609  and  _610
REMARK  250  A    between atoms: _616  and  _618
REMARK  251  A    between atoms: _618  and  _619
REMARK  252  A    between atoms: _618  and  _621
REMARK  253  A    between atoms: _621  and  _622
REMARK  254  A    between atoms: _628  and  _630
REMARK  255  A    between atoms: _630  and  _631
REMARK  256  A    between atoms: _630  and  _633
REMARK  257  A    between atoms: _633  and  _634
REMARK  258  A    between atoms: _637  and  _639
REMARK  259  A    between atoms: _639  and  _640
REMARK  260  A    between atoms: _639  and  _642
REMARK  261  A    between atoms: _642  and  _643
REMARK  262  A    between atoms: _648  and  _649
REMARK  263  A    between atoms: _651  and  _653
REMARK  264  A    between atoms: _653  and  _654
REMARK  265  A    between atoms: _657  and  _659
REMARK  266  A    between atoms: _659  and  _660
REMARK  267  A    between atoms: _659  and  _662
REMARK  268  A    between atoms: _662  and  _663
REMARK  269  A    between atoms: _663  and  _664
REMARK  270  A    between atoms: _670  and  _671
REMARK  271  A    between atoms: _676  and  _678
REMARK  272  A    between atoms: _678  and  _679
REMARK  273  A    between atoms: _678  and  _681
REMARK  274  A    between atoms: _681  and  _682
REMARK  275  A    between atoms: _685  and  _687
REMARK  276  A    between atoms: _687  and  _688
REMARK  277  A    between atoms: _687  and  _690
REMARK  278  A    between atoms: _690  and  _691
REMARK  279  A    between atoms: _691  and  _692
REMARK  280  A    between atoms: _695  and  _697
REMARK  281  A    between atoms: _697  and  _698
REMARK  282  A    between atoms: _697  and  _700
REMARK  283  A    between atoms: _703  and  _705
REMARK  284  A    between atoms: _705  and  _706
REMARK  285  A    between atoms: _705  and  _708
REMARK  286  A    between atoms: _708  and  _709
REMARK  287  A    between atoms: _709  and  _710
REMARK                            x       y       z     vdW  Elec       q    Type
REMARK                         _______ _______ _______ _____ _____    ______ ____
ROOT
ATOM      1  O   HOH     1      18.680 104.738  12.329  0.00  0.00    +0.000 OA
ENDROOT
TORSDOF 0
REMARK  Name = ../refined-set-2016/5tmp/5tmp_pocket.pdb
REMARK  287 active torsions:
REMARK  status: ('A' for Active; 'I' for Inactive)
REMARK    1  A    between atoms: _1  and  _3
REMARK    2  A    between atoms: _3  and  _4
REMARK    3  A    between atoms: _3  and  _6
REMARK    4  A    between atoms: _6  and  _7
REMARK    5  A    between atoms: _10  and  _12
REMARK    6  A    between atoms: _12  and  _13
REMARK    7  A    between atoms: _12  and  _15
REMARK    8  A    between atoms: _15  and  _16
REMARK    9  A    between atoms: _16  and  _17
REMARK   10  A    between atoms: _20  and  _22
REMARK   11  A    between atoms: _22  and  _23
REMARK   12  A    between atoms: _25  and  _27
REMARK   13  A    between atoms: _27  and  _28
REMARK   14  A    between atoms: _27  and  _30
REMARK   15  A    between atoms: _30  and  _31
REMARK   16  A    between atoms: _34  and  _36
REMARK   17  A    between atoms: _36  and  _37
REMARK   18  A    between atoms: _36  and  _39
REMARK   19  A    between atoms: _39  and  _40
REMARK   20  A    between atoms: _40  and  _41
REMARK   21  A    between atoms: _44  and  _46
REMARK   22  A    between atoms: _46  and  _47
REMARK   23  A    between atoms: _49  and  _51
REMARK   24  A    between atoms: _51  and  _52
REMARK   25  A    between atoms: _55  and  _57
REMARK   26  A    between atoms: _57  and  _58
REMARK   27  A    between atoms: _60  and  _62
REMARK   28  A    between atoms: _62  and  _63
REMARK   29  A    between atoms: _62  and  _65
REMARK   30  A    between atoms: _65  and  _66
REMARK   31  A    between atoms: _66  and  _67
REMARK   32  A    between atoms: _67  and  _68
REMARK   33  A    between atoms: _68  and  _69
REMARK   34  A    between atoms: _73  and  _75
REMARK   35  A    between atoms: _75  and  _76
REMARK   36  A    between atoms: _75  and  _78
REMARK   37  A    between atoms: _78  and  _79
REMARK   38  A    between atoms: _82  and  _84
REMARK   39  A    between atoms: _84  and  _85
REMARK   40  A    between atoms: _84  and  _87
REMARK   41  A    between atoms: _87  and  _88
REMARK   42  A    between atoms: _91  and  _93
REMARK   43  A    between atoms: _93  and  _94
REMARK   44  A    between atoms: _97  and  _99
REMARK   45  A    between atoms: _99  and  _100
REMARK   46  A    between atoms: _99  and  _102
REMARK   47  A    between atoms: _102  and  _103
REMARK   48  A    between atoms: _103  and  _104
REMARK   49  A    between atoms: _104  and  _105
REMARK   50  A    between atoms: _114  and  _116
REMARK   51  A    between atoms: _116  and  _117
REMARK   52  A    between atoms: _116  and  _119
REMARK   53  A    between atoms: _119  and  _120
REMARK   54  A    between atoms: _120  and  _121
REMARK   55  A    between atoms: _121  and  _122
REMARK   56  A    between atoms: _131  and  _133
REMARK   57  A    between atoms: _133  and  _134
REMARK   58  A    between atoms: _133  and  _136
REMARK   59  A    between atoms: _136  and  _137
REMARK   60  A    between atoms: _137  and  _138
REMARK   61  A    between atoms: _142  and  _143
REMARK   62  A    between atoms: _148  and  _150
REMARK   63  A    between atoms: _150  and  _151
REMARK   64  A    between atoms: _153  and  _155
REMARK   65  A    between atoms: _155  and  _156
REMARK   66  A    between atoms: _155  and  _158
REMARK   67  A    between atoms: _158  and  _159
REMARK   68  A    between atoms: _159  and  _160
REMARK   69  A    between atoms: _160  and  _161
REMARK   70  A    between atoms: _170  and  _172
REMARK   71  A    between atoms: _172  and  _173
REMARK   72  A    between atoms: _172  and  _175
REMARK   73  A    between atoms: _175  and  _176
REMARK   74  A    between atoms: _179  and  _181
REMARK   75  A    between atoms: _181  and  _182
REMARK   76  A    between atoms: _181  and  _184
REMARK   77  A    between atoms: _184  and  _185
REMARK   78  A    between atoms: _188  and  _190
REMARK   79  A    between atoms: _190  and  _191
REMARK   80  A    between atoms: _190  and  _193
REMARK   81  A    between atoms: _193  and  _194
REMARK   82  A    between atoms: _194  and  _195
REMARK   83  A    between atoms: _198  and  _200
REMARK   84  A    between atoms: _200  and  _201
REMARK   85  A    between atoms: _200  and  _203
REMARK   86  A    between atoms: _206  and  _208
REMARK   87  A    between atoms: _208  and  _209
REMARK   88  A    between atoms: _208  and  _211
REMARK   89  A    between atoms: _211  and  _212
REMARK   90  A    between atoms: _212  and  _213
REMARK   91  A    between atoms: _215  and  _217
REMARK   92  A    between atoms: _217  and  _218
REMARK   93  A    between atoms: _217  and  _220
REMARK   94  A    between atoms: _220  and  _221
REMARK   95  A    between atoms: _227  and  _229
REMARK   96  A    between atoms: _229  and  _230
REMARK   97  A    between atoms: _229  and  _232
REMARK   98  A    between atoms: _232  and  _233
REMARK   99  A    between atoms: _238  and  _239
REMARK  100  A    between atoms: _241  and  _243
REMARK  101  A    between atoms: _243  and  _244
REMARK  102  A    between atoms: _247  and  _249
REMARK  103  A    between atoms: _249  and  _250
REMARK  104  A    between atoms: _249  and  _252
REMARK  105  A    between atoms: _252  and  _253
REMARK  106  A    between atoms: _253  and  _254
REMARK  107  A    between atoms: _254  and  _255
REMARK  108  A    between atoms: _264  and  _266
REMARK  109  A    between atoms: _266  and  _267
REMARK  110  A    between atoms: _266  and  _269
REMARK  111  A    between atoms: _269  and  _270
REMARK  112  A    between atoms: _273  and  _275
REMARK  113  A    between atoms: _275  and  _276
REMARK  114  A    between atoms: _275  and  _278
REMARK  115  A    between atoms: _278  and  _279
REMARK  116  A    between atoms: _279  and  _280
REMARK  117  A    between atoms: _280  and  _281
REMARK  118  A    between atoms: _290  and  _292
REMARK  119  A    between atoms: _292  and  _293
REMARK  120  A    between atoms: _292  and  _295
REMARK  121  A    between atoms: _295  and  _296
REMARK  122  A    between atoms: _301  and  _303
REMARK  123  A    between atoms: _303  and  _304
REMARK  124  A    between atoms: _303  and  _306
REMARK  125  A    between atoms: _306  and  _307
REMARK  126  A    between atoms: _310  and  _312
REMARK  127  A    between atoms: _312  and  _313
REMARK  128  A    between atoms: _312  and  _315
REMARK  129  A    between atoms: _315  and  _316
REMARK  130  A    between atoms: _319  and  _321
REMARK  131  A    between atoms: _321  and  _322
REMARK  132  A    between atoms: _321  and  _324
REMARK  133  A    between atoms: _324  and  _325
REMARK  134  A    between atoms: _327  and  _329
REMARK  135  A    between atoms: _329  and  _330
REMARK  136  A    between atoms: _329  and  _332
REMARK  137  A    between atoms: _332  and  _333
REMARK  138  A    between atoms: _336  and  _338
REMARK  139  A    between atoms: _338  and  _339
REMARK  140  A    between atoms: _338  and  _341
REMARK  141  A    between atoms: _341  and  _342
REMARK  142  A    between atoms: _342  and  _343
REMARK  143  A    between atoms: _348  and  _350
REMARK  144  A    between atoms: _350  and  _351
REMARK  145  A    between atoms: _354  and  _356
REMARK  146  A    between atoms: _356  and  _357
REMARK  147  A    between atoms: _356  and  _359
REMARK  148  A    between atoms: _359  and  _360
REMARK  149  A    between atoms: _365  and  _366
REMARK  150  A    between atoms: _368  and  _370
REMARK  151  A    between atoms: _370  and  _371
REMARK  152  A    between atoms: _370  and  _373
REMARK  153  A    between atoms: _373  and  _374
REMARK  154  A    between atoms: _374  and  _375
REMARK  155  A    between atoms: _380  and  _382
REMARK  156  A    between atoms: _382  and  _383
REMARK  157  A    between atoms: _385  and  _387
REMARK  158  A    between atoms: _387  and  _388
REMARK  159  A    between atoms: _390  and  _392
REMARK  160  A    between atoms: _392  and  _393
REMARK  161  A    between atoms: _392  and  _395
REMARK  162  A    between atoms: _395  and  _396
REMARK  163  A    between atoms: _396  and  _397
REMARK  164  A    between atoms: _397  and  _398
REMARK  165  A    between atoms: _407  and  _409
REMARK  166  A    between atoms: _409  and  _410
REMARK  167  A    between atoms: _409  and  _412
REMARK  168  A    between atoms: _412  and  _413
REMARK  169  A    between atoms: _416  and  _418
REMARK  170  A    between atoms: _418  and  _419
REMARK  171  A    between atoms: _418  and  _421
REMARK  172  A    between atoms: _424  and  _426
REMARK  173  A    between atoms: _426  and  _427
REMARK  174  A    between atoms: _426  and  _429
REMARK  175  A    between atoms: _432  and  _434
REMARK  176  A    between atoms: _434  and  _435
REMARK  177  A    between atoms: _437  and  _439
REMARK  178  A    between atoms: _439  and  _440
REMARK  179  A    between atoms: _439  and  _442
REMARK  180  A    between atoms: _442  and  _443
REMARK  181  A    between atoms: _446  and  _448
REMARK  182  A    between atoms: _448  and  _449
REMARK  183  A    between atoms: _448  and  _451
REMARK  184  A    between atoms: _451  and  _452
REMARK  185  A    between atoms: _452  and  _453
REMARK  186  A    between atoms: _453  and  _454
REMARK  187  A    between atoms: _454  and  _455
REMARK  188  A    between atoms: _459  and  _461
REMARK  189  A    between atoms: _461  and  _462
REMARK  190  A    between atoms: _461  and  _464
REMARK  191  A    between atoms: _464  and  _465
REMARK  192  A    between atoms: _465  and  _466
REMARK  193  A    between atoms: _466  and  _467
REMARK  194  A    between atoms: _476  and  _478
REMARK  195  A    between atoms: _478  and  _479
REMARK  196  A    between atoms: _482  and  _484
REMARK  197  A    between atoms: _484  and  _485
REMARK  198  A    between atoms: _484  and  _487
REMARK  199  A    between atoms: _487  and  _488
REMARK  200  A    between atoms: _488  and  _489
REMARK  201  A    between atoms: _489  and  _490
REMARK  202  A    between atoms: _499  and  _501
REMARK  203  A    between atoms: _501  and  _502
REMARK  204  A    between atoms: _505  and  _507
REMARK  205  A    between atoms: _507  and  _508
REMARK  206  A    between atoms: _507  and  _510
REMARK  207  A    between atoms: _510  and  _511
REMARK  208  A    between atoms: _511  and  _512
REMARK  209  A    between atoms: _512  and  _513
REMARK  210  A    between atoms: _522  and  _524
REMARK  211  A    between atoms: _524  and  _525
REMARK  212  A    between atoms: _527  and  _529
REMARK  213  A    between atoms: _529  and  _530
REMARK  214  A    between atoms: _529  and  _532
REMARK  215  A    between atoms: _532  and  _533
REMARK  216  A    between atoms: _533  and  _534
REMARK  217  A    between atoms: _537  and  _539
REMARK  218  A    between atoms: _539  and  _540
REMARK  219  A    between atoms: _539  and  _542
REMARK  220  A    between atoms: _542  and  _543
REMARK  221  A    between atoms: _546  and  _548
REMARK  222  A    between atoms: _548  and  _549
REMARK  223  A    between atoms: _548  and  _551
REMARK  224  A    between atoms: _551  and  _552
REMARK  225  A    between atoms: _552  and  _553
REMARK  226  A    between atoms: _553  and  _554
REMARK  227  A    between atoms: _563  and  _565
REMARK  228  A    between atoms: _565  and  _566
REMARK  229  A    between atoms: _565  and  _568
REMARK  230  A    between atoms: _568  and  _569
REMARK  231  A    between atoms: _572  and  _574
REMARK  232  A    between atoms: _574  and  _575
REMARK  233  A    between atoms: _574  and  _577
REMARK  234  A    between atoms: _577  and  _578
REMARK  235  A    between atoms: _578  and  _579
REMARK  236  A    between atoms: _582  and  _584
REMARK  237  A    between atoms: _584  and  _585
REMARK  238  A    between atoms: _584  and  _587
REMARK  239  A    between atoms: _587  and  _588
REMARK  240  A    between atoms: _588  and  _589
REMARK  241  A    between atoms: _594  and  _596
REMARK  242  A    between atoms: _596  and  _597
REMARK  243  A    between atoms: _596  and  _599
REMARK  244  A    between atoms: _599  and  _600
REMARK  245  A    between atoms: _600  and  _601
REMARK  246  A    between atoms: _604  and  _606
REMARK  247  A    between atoms: _606  and  _607
REMARK  248  A    between atoms: _606  and  _609
REMARK  249  A    between atoms: _609  and  _610
REMARK  250  A    between atoms: _616  and  _618
REMARK  251  A    between atoms: _618  and  _619
REMARK  252  A    between atoms: _618  and  _621
REMARK  253  A    between atoms: _621  and  _622
REMARK  254  A    between atoms: _628  and  _630
REMARK  255  A    between atoms: _630  and  _631
REMARK  256  A    between atoms: _630  and  _633
REMARK  257  A    between atoms: _633  and  _634
REMARK  258  A    between atoms: _637  and  _639
REMARK  259  A    between atoms: _639  and  _640
REMARK  260  A    between atoms: _639  and  _642
REMARK  261  A    between atoms: _642  and  _643
REMARK  262  A    between atoms: _648  and  _649
REMARK  263  A    between atoms: _651  and  _653
REMARK  264  A    between atoms: _653  and  _654
REMARK  265  A    between atoms: _657  and  _659
REMARK  266  A    between atoms: _659  and  _660
REMARK  267  A    between atoms: _659  and  _662
REMARK  268  A    between atoms: _662  and  _663
REMARK  269  A    between atoms: _663  and  _664
REMARK  270  A    between atoms: _670  and  _671
REMARK  271  A    between atoms: _676  and  _678
REMARK  272  A    between atoms: _678  and  _679
REMARK  273  A    between atoms: _678  and  _681
REMARK  274  A    between atoms: _681  and  _682
REMARK  275  A    between atoms: _685  and  _687
REMARK  276  A    between atoms: _687  and  _688
REMARK  277  A    between atoms: _687  and  _690
REMARK  278  A    between atoms: _690  and  _691
REMARK  279  A    between atoms: _691  and  _692
REMARK  280  A    between atoms: _695  and  _697
REMARK  281  A    between atoms: _697  and  _698
REMARK  282  A    between atoms: _697  and  _700
REMARK  283  A    between atoms: _703  and  _705
REMARK  284  A    between atoms: _705  and  _706
REMARK  285  A    between atoms: _705  and  _708
REMARK  286  A    between atoms: _708  and  _709
REMARK  287  A    between atoms: _709  and  _710
REMARK                            x       y       z     vdW  Elec       q    Type
REMARK                         _______ _______ _______ _____ _____    ______ ____
ROOT
ATOM      1  O   HOH     1      21.436 104.540  12.359  0.00  0.00    +0.000 OA
ENDROOT
TORSDOF 0
REMARK  Name = ../refined-set-2016/5tmp/5tmp_pocket.pdb
REMARK  287 active torsions:
REMARK  status: ('A' for Active; 'I' for Inactive)
REMARK    1  A    between atoms: _1  and  _3
REMARK    2  A    between atoms: _3  and  _4
REMARK    3  A    between atoms: _3  and  _6
REMARK    4  A    between atoms: _6  and  _7
REMARK    5  A    between atoms: _10  and  _12
REMARK    6  A    between atoms: _12  and  _13
REMARK    7  A    between atoms: _12  and  _15
REMARK    8  A    between atoms: _15  and  _16
REMARK    9  A    between atoms: _16  and  _17
REMARK   10  A    between atoms: _20  and  _22
REMARK   11  A    between atoms: _22  and  _23
REMARK   12  A    between atoms: _25  and  _27
REMARK   13  A    between atoms: _27  and  _28
REMARK   14  A    between atoms: _27  and  _30
REMARK   15  A    between atoms: _30  and  _31
REMARK   16  A    between atoms: _34  and  _36
REMARK   17  A    between atoms: _36  and  _37
REMARK   18  A    between atoms: _36  and  _39
REMARK   19  A    between atoms: _39  and  _40
REMARK   20  A    between atoms: _40  and  _41
REMARK   21  A    between atoms: _44  and  _46
REMARK   22  A    between atoms: _46  and  _47
REMARK   23  A    between atoms: _49  and  _51
REMARK   24  A    between atoms: _51  and  _52
REMARK   25  A    between atoms: _55  and  _57
REMARK   26  A    between atoms: _57  and  _58
REMARK   27  A    between atoms: _60  and  _62
REMARK   28  A    between atoms: _62  and  _63
REMARK   29  A    between atoms: _62  and  _65
REMARK   30  A    between atoms: _65  and  _66
REMARK   31  A    between atoms: _66  and  _67
REMARK   32  A    between atoms: _67  and  _68
REMARK   33  A    between atoms: _68  and  _69
REMARK   34  A    between atoms: _73  and  _75
REMARK   35  A    between atoms: _75  and  _76
REMARK   36  A    between atoms: _75  and  _78
REMARK   37  A    between atoms: _78  and  _79
REMARK   38  A    between atoms: _82  and  _84
REMARK   39  A    between atoms: _84  and  _85
REMARK   40  A    between atoms: _84  and  _87
REMARK   41  A    between atoms: _87  and  _88
REMARK   42  A    between atoms: _91  and  _93
REMARK   43  A    between atoms: _93  and  _94
REMARK   44  A    between atoms: _97  and  _99
REMARK   45  A    between atoms: _99  and  _100
REMARK   46  A    between atoms: _99  and  _102
REMARK   47  A    between atoms: _102  and  _103
REMARK   48  A    between atoms: _103  and  _104
REMARK   49  A    between atoms: _104  and  _105
REMARK   50  A    between atoms: _114  and  _116
REMARK   51  A    between atoms: _116  and  _117
REMARK   52  A    between atoms: _116  and  _119
REMARK   53  A    between atoms: _119  and  _120
REMARK   54  A    between atoms: _120  and  _121
REMARK   55  A    between atoms: _121  and  _122
REMARK   56  A    between atoms: _131  and  _133
REMARK   57  A    between atoms: _133  and  _134
REMARK   58  A    between atoms: _133  and  _136
REMARK   59  A    between atoms: _136  and  _137
REMARK   60  A    between atoms: _137  and  _138
REMARK   61  A    between atoms: _142  and  _143
REMARK   62  A    between atoms: _148  and  _150
REMARK   63  A    between atoms: _150  and  _151
REMARK   64  A    between atoms: _153  and  _155
REMARK   65  A    between atoms: _155  and  _156
REMARK   66  A    between atoms: _155  and  _158
REMARK   67  A    between atoms: _158  and  _159
REMARK   68  A    between atoms: _159  and  _160
REMARK   69  A    between atoms: _160  and  _161
REMARK   70  A    between atoms: _170  and  _172
REMARK   71  A    between atoms: _172  and  _173
REMARK   72  A    between atoms: _172  and  _175
REMARK   73  A    between atoms: _175  and  _176
REMARK   74  A    between atoms: _179  and  _181
REMARK   75  A    between atoms: _181  and  _182
REMARK   76  A    between atoms: _181  and  _184
REMARK   77  A    between atoms: _184  and  _185
REMARK   78  A    between atoms: _188  and  _190
REMARK   79  A    between atoms: _190  and  _191
REMARK   80  A    between atoms: _190  and  _193
REMARK   81  A    between atoms: _193  and  _194
REMARK   82  A    between atoms: _194  and  _195
REMARK   83  A    between atoms: _198  and  _200
REMARK   84  A    between atoms: _200  and  _201
REMARK   85  A    between atoms: _200  and  _203
REMARK   86  A    between atoms: _206  and  _208
REMARK   87  A    between atoms: _208  and  _209
REMARK   88  A    between atoms: _208  and  _211
REMARK   89  A    between atoms: _211  and  _212
REMARK   90  A    between atoms: _212  and  _213
REMARK   91  A    between atoms: _215  and  _217
REMARK   92  A    between atoms: _217  and  _218
REMARK   93  A    between atoms: _217  and  _220
REMARK   94  A    between atoms: _220  and  _221
REMARK   95  A    between atoms: _227  and  _229
REMARK   96  A    between atoms: _229  and  _230
REMARK   97  A    between atoms: _229  and  _232
REMARK   98  A    between atoms: _232  and  _233
REMARK   99  A    between atoms: _238  and  _239
REMARK  100  A    between atoms: _241  and  _243
REMARK  101  A    between atoms: _243  and  _244
REMARK  102  A    between atoms: _247  and  _249
REMARK  103  A    between atoms: _249  and  _250
REMARK  104  A    between atoms: _249  and  _252
REMARK  105  A    between atoms: _252  and  _253
REMARK  106  A    between atoms: _253  and  _254
REMARK  107  A    between atoms: _254  and  _255
REMARK  108  A    between atoms: _264  and  _266
REMARK  109  A    between atoms: _266  and  _267
REMARK  110  A    between atoms: _266  and  _269
REMARK  111  A    between atoms: _269  and  _270
REMARK  112  A    between atoms: _273  and  _275
REMARK  113  A    between atoms: _275  and  _276
REMARK  114  A    between atoms: _275  and  _278
REMARK  115  A    between atoms: _278  and  _279
REMARK  116  A    between atoms: _279  and  _280
REMARK  117  A    between atoms: _280  and  _281
REMARK  118  A    between atoms: _290  and  _292
REMARK  119  A    between atoms: _292  and  _293
REMARK  120  A    between atoms: _292  and  _295
REMARK  121  A    between atoms: _295  and  _296
REMARK  122  A    between atoms: _301  and  _303
REMARK  123  A    between atoms: _303  and  _304
REMARK  124  A    between atoms: _303  and  _306
REMARK  125  A    between atoms: _306  and  _307
REMARK  126  A    between atoms: _310  and  _312
REMARK  127  A    between atoms: _312  and  _313
REMARK  128  A    between atoms: _312  and  _315
REMARK  129  A    between atoms: _315  and  _316
REMARK  130  A    between atoms: _319  and  _321
REMARK  131  A    between atoms: _321  and  _322
REMARK  132  A    between atoms: _321  and  _324
REMARK  133  A    between atoms: _324  and  _325
REMARK  134  A    between atoms: _327  and  _329
REMARK  135  A    between atoms: _329  and  _330
REMARK  136  A    between atoms: _329  and  _332
REMARK  137  A    between atoms: _332  and  _333
REMARK  138  A    between atoms: _336  and  _338
REMARK  139  A    between atoms: _338  and  _339
REMARK  140  A    between atoms: _338  and  _341
REMARK  141  A    between atoms: _341  and  _342
REMARK  142  A    between atoms: _342  and  _343
REMARK  143  A    between atoms: _348  and  _350
REMARK  144  A    between atoms: _350  and  _351
REMARK  145  A    between atoms: _354  and  _356
REMARK  146  A    between atoms: _356  and  _357
REMARK  147  A    between atoms: _356  and  _359
REMARK  148  A    between atoms: _359  and  _360
REMARK  149  A    between atoms: _365  and  _366
REMARK  150  A    between atoms: _368  and  _370
REMARK  151  A    between atoms: _370  and  _371
REMARK  152  A    between atoms: _370  and  _373
REMARK  153  A    between atoms: _373  and  _374
REMARK  154  A    between atoms: _374  and  _375
REMARK  155  A    between atoms: _380  and  _382
REMARK  156  A    between atoms: _382  and  _383
REMARK  157  A    between atoms: _385  and  _387
REMARK  158  A    between atoms: _387  and  _388
REMARK  159  A    between atoms: _390  and  _392
REMARK  160  A    between atoms: _392  and  _393
REMARK  161  A    between atoms: _392  and  _395
REMARK  162  A    between atoms: _395  and  _396
REMARK  163  A    between atoms: _396  and  _397
REMARK  164  A    between atoms: _397  and  _398
REMARK  165  A    between atoms: _407  and  _409
REMARK  166  A    between atoms: _409  and  _410
REMARK  167  A    between atoms: _409  and  _412
REMARK  168  A    between atoms: _412  and  _413
REMARK  169  A    between atoms: _416  and  _418
REMARK  170  A    between atoms: _418  and  _419
REMARK  171  A    between atoms: _418  and  _421
REMARK  172  A    between atoms: _424  and  _426
REMARK  173  A    between atoms: _426  and  _427
REMARK  174  A    between atoms: _426  and  _429
REMARK  175  A    between atoms: _432  and  _434
REMARK  176  A    between atoms: _434  and  _435
REMARK  177  A    between atoms: _437  and  _439
REMARK  178  A    between atoms: _439  and  _440
REMARK  179  A    between atoms: _439  and  _442
REMARK  180  A    between atoms: _442  and  _443
REMARK  181  A    between atoms: _446  and  _448
REMARK  182  A    between atoms: _448  and  _449
REMARK  183  A    between atoms: _448  and  _451
REMARK  184  A    between atoms: _451  and  _452
REMARK  185  A    between atoms: _452  and  _453
REMARK  186  A    between atoms: _453  and  _454
REMARK  187  A    between atoms: _454  and  _455
REMARK  188  A    between atoms: _459  and  _461
REMARK  189  A    between atoms: _461  and  _462
REMARK  190  A    between atoms: _461  and  _464
REMARK  191  A    between atoms: _464  and  _465
REMARK  192  A    between atoms: _465  and  _466
REMARK  193  A    between atoms: _466  and  _467
REMARK  194  A    between atoms: _476  and  _478
REMARK  195  A    between atoms: _478  and  _479
REMARK  196  A    between atoms: _482  and  _484
REMARK  197  A    between atoms: _484  and  _485
REMARK  198  A    between atoms: _484  and  _487
REMARK  199  A    between atoms: _487  and  _488
REMARK  200  A    between atoms: _488  and  _489
REMARK  201  A    between atoms: _489  and  _490
REMARK  202  A    between atoms: _499  and  _501
REMARK  203  A    between atoms: _501  and  _502
REMARK  204  A    between atoms: _505  and  _507
REMARK  205  A    between atoms: _507  and  _508
REMARK  206  A    between atoms: _507  and  _510
REMARK  207  A    between atoms: _510  and  _511
REMARK  208  A    between atoms: _511  and  _512
REMARK  209  A    between atoms: _512  and  _513
REMARK  210  A    between atoms: _522  and  _524
REMARK  211  A    between atoms: _524  and  _525
REMARK  212  A    between atoms: _527  and  _529
REMARK  213  A    between atoms: _529  and  _530
REMARK  214  A    between atoms: _529  and  _532
REMARK  215  A    between atoms: _532  and  _533
REMARK  216  A    between atoms: _533  and  _534
REMARK  217  A    between atoms: _537  and  _539
REMARK  218  A    between atoms: _539  and  _540
REMARK  219  A    between atoms: _539  and  _542
REMARK  220  A    between atoms: _542  and  _543
REMARK  221  A    between atoms: _546  and  _548
REMARK  222  A    between atoms: _548  and  _549
REMARK  223  A    between atoms: _548  and  _551
REMARK  224  A    between atoms: _551  and  _552
REMARK  225  A    between atoms: _552  and  _553
REMARK  226  A    between atoms: _553  and  _554
REMARK  227  A    between atoms: _563  and  _565
REMARK  228  A    between atoms: _565  and  _566
REMARK  229  A    between atoms: _565  and  _568
REMARK  230  A    between atoms: _568  and  _569
REMARK  231  A    between atoms: _572  and  _574
REMARK  232  A    between atoms: _574  and  _575
REMARK  233  A    between atoms: _574  and  _577
REMARK  234  A    between atoms: _577  and  _578
REMARK  235  A    between atoms: _578  and  _579
REMARK  236  A    between atoms: _582  and  _584
REMARK  237  A    between atoms: _584  and  _585
REMARK  238  A    between atoms: _584  and  _587
REMARK  239  A    between atoms: _587  and  _588
REMARK  240  A    between atoms: _588  and  _589
REMARK  241  A    between atoms: _594  and  _596
REMARK  242  A    between atoms: _596  and  _597
REMARK  243  A    between atoms: _596  and  _599
REMARK  244  A    between atoms: _599  and  _600
REMARK  245  A    between atoms: _600  and  _601
REMARK  246  A    between atoms: _604  and  _606
REMARK  247  A    between atoms: _606  and  _607
REMARK  248  A    between atoms: _606  and  _609
REMARK  249  A    between atoms: _609  and  _610
REMARK  250  A    between atoms: _616  and  _618
REMARK  251  A    between atoms: _618  and  _619
REMARK  252  A    between atoms: _618  and  _621
REMARK  253  A    between atoms: _621  and  _622
REMARK  254  A    between atoms: _628  and  _630
REMARK  255  A    between atoms: _630  and  _631
REMARK  256  A    between atoms: _630  and  _633
REMARK  257  A    between atoms: _633  and  _634
REMARK  258  A    between atoms: _637  and  _639
REMARK  259  A    between atoms: _639  and  _640
REMARK  260  A    between atoms: _639  and  _642
REMARK  261  A    between atoms: _642  and  _643
REMARK  262  A    between atoms: _648  and  _649
REMARK  263  A    between atoms: _651  and  _653
REMARK  264  A    between atoms: _653  and  _654
REMARK  265  A    between atoms: _657  and  _659
REMARK  266  A    between atoms: _659  and  _660
REMARK  267  A    between atoms: _659  and  _662
REMARK  268  A    between atoms: _662  and  _663
REMARK  269  A    between atoms: _663  and  _664
REMARK  270  A    between atoms: _670  and  _671
REMARK  271  A    between atoms: _676  and  _678
REMARK  272  A    between atoms: _678  and  _679
REMARK  273  A    between atoms: _678  and  _681
REMARK  274  A    between atoms: _681  and  _682
REMARK  275  A    between atoms: _685  and  _687
REMARK  276  A    between atoms: _687  and  _688
REMARK  277  A    between atoms: _687  and  _690
REMARK  278  A    between atoms: _690  and  _691
REMARK  279  A    between atoms: _691  and  _692
REMARK  280  A    between atoms: _695  and  _697
REMARK  281  A    between atoms: _697  and  _698
REMARK  282  A    between atoms: _697  and  _700
REMARK  283  A    between atoms: _703  and  _705
REMARK  284  A    between atoms: _705  and  _706
REMARK  285  A    between atoms: _705  and  _708
REMARK  286  A    between atoms: _708  and  _709
REMARK  287  A    between atoms: _709  and  _710
REMARK                            x       y       z     vdW  Elec       q    Type
REMARK                         _______ _______ _______ _____ _____    ______ ____
ROOT
ATOM      1  O   HOH     1      22.205 109.128   6.174  0.00  0.00    +0.000 OA
ENDROOT
TORSDOF 0
REMARK  Name = ../refined-set-2016/5tmp/5tmp_pocket.pdb
REMARK  287 active torsions:
REMARK  status: ('A' for Active; 'I' for Inactive)
REMARK    1  A    between atoms: _1  and  _3
REMARK    2  A    between atoms: _3  and  _4
REMARK    3  A    between atoms: _3  and  _6
REMARK    4  A    between atoms: _6  and  _7
REMARK    5  A    between atoms: _10  and  _12
REMARK    6  A    between atoms: _12  and  _13
REMARK    7  A    between atoms: _12  and  _15
REMARK    8  A    between atoms: _15  and  _16
REMARK    9  A    between atoms: _16  and  _17
REMARK   10  A    between atoms: _20  and  _22
REMARK   11  A    between atoms: _22  and  _23
REMARK   12  A    between atoms: _25  and  _27
REMARK   13  A    between atoms: _27  and  _28
REMARK   14  A    between atoms: _27  and  _30
REMARK   15  A    between atoms: _30  and  _31
REMARK   16  A    between atoms: _34  and  _36
REMARK   17  A    between atoms: _36  and  _37
REMARK   18  A    between atoms: _36  and  _39
REMARK   19  A    between atoms: _39  and  _40
REMARK   20  A    between atoms: _40  and  _41
REMARK   21  A    between atoms: _44  and  _46
REMARK   22  A    between atoms: _46  and  _47
REMARK   23  A    between atoms: _49  and  _51
REMARK   24  A    between atoms: _51  and  _52
REMARK   25  A    between atoms: _55  and  _57
REMARK   26  A    between atoms: _57  and  _58
REMARK   27  A    between atoms: _60  and  _62
REMARK   28  A    between atoms: _62  and  _63
REMARK   29  A    between atoms: _62  and  _65
REMARK   30  A    between atoms: _65  and  _66
REMARK   31  A    between atoms: _66  and  _67
REMARK   32  A    between atoms: _67  and  _68
REMARK   33  A    between atoms: _68  and  _69
REMARK   34  A    between atoms: _73  and  _75
REMARK   35  A    between atoms: _75  and  _76
REMARK   36  A    between atoms: _75  and  _78
REMARK   37  A    between atoms: _78  and  _79
REMARK   38  A    between atoms: _82  and  _84
REMARK   39  A    between atoms: _84  and  _85
REMARK   40  A    between atoms: _84  and  _87
REMARK   41  A    between atoms: _87  and  _88
REMARK   42  A    between atoms: _91  and  _93
REMARK   43  A    between atoms: _93  and  _94
REMARK   44  A    between atoms: _97  and  _99
REMARK   45  A    between atoms: _99  and  _100
REMARK   46  A    between atoms: _99  and  _102
REMARK   47  A    between atoms: _102  and  _103
REMARK   48  A    between atoms: _103  and  _104
REMARK   49  A    between atoms: _104  and  _105
REMARK   50  A    between atoms: _114  and  _116
REMARK   51  A    between atoms: _116  and  _117
REMARK   52  A    between atoms: _116  and  _119
REMARK   53  A    between atoms: _119  and  _120
REMARK   54  A    between atoms: _120  and  _121
REMARK   55  A    between atoms: _121  and  _122
REMARK   56  A    between atoms: _131  and  _133
REMARK   57  A    between atoms: _133  and  _134
REMARK   58  A    between atoms: _133  and  _136
REMARK   59  A    between atoms: _136  and  _137
REMARK   60  A    between atoms: _137  and  _138
REMARK   61  A    between atoms: _142  and  _143
REMARK   62  A    between atoms: _148  and  _150
REMARK   63  A    between atoms: _150  and  _151
REMARK   64  A    between atoms: _153  and  _155
REMARK   65  A    between atoms: _155  and  _156
REMARK   66  A    between atoms: _155  and  _158
REMARK   67  A    between atoms: _158  and  _159
REMARK   68  A    between atoms: _159  and  _160
REMARK   69  A    between atoms: _160  and  _161
REMARK   70  A    between atoms: _170  and  _172
REMARK   71  A    between atoms: _172  and  _173
REMARK   72  A    between atoms: _172  and  _175
REMARK   73  A    between atoms: _175  and  _176
REMARK   74  A    between atoms: _179  and  _181
REMARK   75  A    between atoms: _181  and  _182
REMARK   76  A    between atoms: _181  and  _184
REMARK   77  A    between atoms: _184  and  _185
REMARK   78  A    between atoms: _188  and  _190
REMARK   79  A    between atoms: _190  and  _191
REMARK   80  A    between atoms: _190  and  _193
REMARK   81  A    between atoms: _193  and  _194
REMARK   82  A    between atoms: _194  and  _195
REMARK   83  A    between atoms: _198  and  _200
REMARK   84  A    between atoms: _200  and  _201
REMARK   85  A    between atoms: _200  and  _203
REMARK   86  A    between atoms: _206  and  _208
REMARK   87  A    between atoms: _208  and  _209
REMARK   88  A    between atoms: _208  and  _211
REMARK   89  A    between atoms: _211  and  _212
REMARK   90  A    between atoms: _212  and  _213
REMARK   91  A    between atoms: _215  and  _217
REMARK   92  A    between atoms: _217  and  _218
REMARK   93  A    between atoms: _217  and  _220
REMARK   94  A    between atoms: _220  and  _221
REMARK   95  A    between atoms: _227  and  _229
REMARK   96  A    between atoms: _229  and  _230
REMARK   97  A    between atoms: _229  and  _232
REMARK   98  A    between atoms: _232  and  _233
REMARK   99  A    between atoms: _238  and  _239
REMARK  100  A    between atoms: _241  and  _243
REMARK  101  A    between atoms: _243  and  _244
REMARK  102  A    between atoms: _247  and  _249
REMARK  103  A    between atoms: _249  and  _250
REMARK  104  A    between atoms: _249  and  _252
REMARK  105  A    between atoms: _252  and  _253
REMARK  106  A    between atoms: _253  and  _254
REMARK  107  A    between atoms: _254  and  _255
REMARK  108  A    between atoms: _264  and  _266
REMARK  109  A    between atoms: _266  and  _267
REMARK  110  A    between atoms: _266  and  _269
REMARK  111  A    between atoms: _269  and  _270
REMARK  112  A    between atoms: _273  and  _275
REMARK  113  A    between atoms: _275  and  _276
REMARK  114  A    between atoms: _275  and  _278
REMARK  115  A    between atoms: _278  and  _279
REMARK  116  A    between atoms: _279  and  _280
REMARK  117  A    between atoms: _280  and  _281
REMARK  118  A    between atoms: _290  and  _292
REMARK  119  A    between atoms: _292  and  _293
REMARK  120  A    between atoms: _292  and  _295
REMARK  121  A    between atoms: _295  and  _296
REMARK  122  A    between atoms: _301  and  _303
REMARK  123  A    between atoms: _303  and  _304
REMARK  124  A    between atoms: _303  and  _306
REMARK  125  A    between atoms: _306  and  _307
REMARK  126  A    between atoms: _310  and  _312
REMARK  127  A    between atoms: _312  and  _313
REMARK  128  A    between atoms: _312  and  _315
REMARK  129  A    between atoms: _315  and  _316
REMARK  130  A    between atoms: _319  and  _321
REMARK  131  A    between atoms: _321  and  _322
REMARK  132  A    between atoms: _321  and  _324
REMARK  133  A    between atoms: _324  and  _325
REMARK  134  A    between atoms: _327  and  _329
REMARK  135  A    between atoms: _329  and  _330
REMARK  136  A    between atoms: _329  and  _332
REMARK  137  A    between atoms: _332  and  _333
REMARK  138  A    between atoms: _336  and  _338
REMARK  139  A    between atoms: _338  and  _339
REMARK  140  A    between atoms: _338  and  _341
REMARK  141  A    between atoms: _341  and  _342
REMARK  142  A    between atoms: _342  and  _343
REMARK  143  A    between atoms: _348  and  _350
REMARK  144  A    between atoms: _350  and  _351
REMARK  145  A    between atoms: _354  and  _356
REMARK  146  A    between atoms: _356  and  _357
REMARK  147  A    between atoms: _356  and  _359
REMARK  148  A    between atoms: _359  and  _360
REMARK  149  A    between atoms: _365  and  _366
REMARK  150  A    between atoms: _368  and  _370
REMARK  151  A    between atoms: _370  and  _371
REMARK  152  A    between atoms: _370  and  _373
REMARK  153  A    between atoms: _373  and  _374
REMARK  154  A    between atoms: _374  and  _375
REMARK  155  A    between atoms: _380  and  _382
REMARK  156  A    between atoms: _382  and  _383
REMARK  157  A    between atoms: _385  and  _387
REMARK  158  A    between atoms: _387  and  _388
REMARK  159  A    between atoms: _390  and  _392
REMARK  160  A    between atoms: _392  and  _393
REMARK  161  A    between atoms: _392  and  _395
REMARK  162  A    between atoms: _395  and  _396
REMARK  163  A    between atoms: _396  and  _397
REMARK  164  A    between atoms: _397  and  _398
REMARK  165  A    between atoms: _407  and  _409
REMARK  166  A    between atoms: _409  and  _410
REMARK  167  A    between atoms: _409  and  _412
REMARK  168  A    between atoms: _412  and  _413
REMARK  169  A    between atoms: _416  and  _418
REMARK  170  A    between atoms: _418  and  _419
REMARK  171  A    between atoms: _418  and  _421
REMARK  172  A    between atoms: _424  and  _426
REMARK  173  A    between atoms: _426  and  _427
REMARK  174  A    between atoms: _426  and  _429
REMARK  175  A    between atoms: _432  and  _434
REMARK  176  A    between atoms: _434  and  _435
REMARK  177  A    between atoms: _437  and  _439
REMARK  178  A    between atoms: _439  and  _440
REMARK  179  A    between atoms: _439  and  _442
REMARK  180  A    between atoms: _442  and  _443
REMARK  181  A    between atoms: _446  and  _448
REMARK  182  A    between atoms: _448  and  _449
REMARK  183  A    between atoms: _448  and  _451
REMARK  184  A    between atoms: _451  and  _452
REMARK  185  A    between atoms: _452  and  _453
REMARK  186  A    between atoms: _453  and  _454
REMARK  187  A    between atoms: _454  and  _455
REMARK  188  A    between atoms: _459  and  _461
REMARK  189  A    between atoms: _461  and  _462
REMARK  190  A    between atoms: _461  and  _464
REMARK  191  A    between atoms: _464  and  _465
REMARK  192  A    between atoms: _465  and  _466
REMARK  193  A    between atoms: _466  and  _467
REMARK  194  A    between atoms: _476  and  _478
REMARK  195  A    between atoms: _478  and  _479
REMARK  196  A    between atoms: _482  and  _484
REMARK  197  A    between atoms: _484  and  _485
REMARK  198  A    between atoms: _484  and  _487
REMARK  199  A    between atoms: _487  and  _488
REMARK  200  A    between atoms: _488  and  _489
REMARK  201  A    between atoms: _489  and  _490
REMARK  202  A    between atoms: _499  and  _501
REMARK  203  A    between atoms: _501  and  _502
REMARK  204  A    between atoms: _505  and  _507
REMARK  205  A    between atoms: _507  and  _508
REMARK  206  A    between atoms: _507  and  _510
REMARK  207  A    between atoms: _510  and  _511
REMARK  208  A    between atoms: _511  and  _512
REMARK  209  A    between atoms: _512  and  _513
REMARK  210  A    between atoms: _522  and  _524
REMARK  211  A    between atoms: _524  and  _525
REMARK  212  A    between atoms: _527  and  _529
REMARK  213  A    between atoms: _529  and  _530
REMARK  214  A    between atoms: _529  and  _532
REMARK  215  A    between atoms: _532  and  _533
REMARK  216  A    between atoms: _533  and  _534
REMARK  217  A    between atoms: _537  and  _539
REMARK  218  A    between atoms: _539  and  _540
REMARK  219  A    between atoms: _539  and  _542
REMARK  220  A    between atoms: _542  and  _543
REMARK  221  A    between atoms: _546  and  _548
REMARK  222  A    between atoms: _548  and  _549
REMARK  223  A    between atoms: _548  and  _551
REMARK  224  A    between atoms: _551  and  _552
REMARK  225  A    between atoms: _552  and  _553
REMARK  226  A    between atoms: _553  and  _554
REMARK  227  A    between atoms: _563  and  _565
REMARK  228  A    between atoms: _565  and  _566
REMARK  229  A    between atoms: _565  and  _568
REMARK  230  A    between atoms: _568  and  _569
REMARK  231  A    between atoms: _572  and  _574
REMARK  232  A    between atoms: _574  and  _575
REMARK  233  A    between atoms: _574  and  _577
REMARK  234  A    between atoms: _577  and  _578
REMARK  235  A    between atoms: _578  and  _579
REMARK  236  A    between atoms: _582  and  _584
REMARK  237  A    between atoms: _584  and  _585
REMARK  238  A    between atoms: _584  and  _587
REMARK  239  A    between atoms: _587  and  _588
REMARK  240  A    between atoms: _588  and  _589
REMARK  241  A    between atoms: _594  and  _596
REMARK  242  A    between atoms: _596  and  _597
REMARK  243  A    between atoms: _596  and  _599
REMARK  244  A    between atoms: _599  and  _600
REMARK  245  A    between atoms: _600  and  _601
REMARK  246  A    between atoms: _604  and  _606
REMARK  247  A    between atoms: _606  and  _607
REMARK  248  A    between atoms: _606  and  _609
REMARK  249  A    between atoms: _609  and  _610
REMARK  250  A    between atoms: _616  and  _618
REMARK  251  A    between atoms: _618  and  _619
REMARK  252  A    between atoms: _618  and  _621
REMARK  253  A    between atoms: _621  and  _622
REMARK  254  A    between atoms: _628  and  _630
REMARK  255  A    between atoms: _630  and  _631
REMARK  256  A    between atoms: _630  and  _633
REMARK  257  A    between atoms: _633  and  _634
REMARK  258  A    between atoms: _637  and  _639
REMARK  259  A    between atoms: _639  and  _640
REMARK  260  A    between atoms: _639  and  _642
REMARK  261  A    between atoms: _642  and  _643
REMARK  262  A    between atoms: _648  and  _649
REMARK  263  A    between atoms: _651  and  _653
REMARK  264  A    between atoms: _653  and  _654
REMARK  265  A    between atoms: _657  and  _659
REMARK  266  A    between atoms: _659  and  _660
REMARK  267  A    between atoms: _659  and  _662
REMARK  268  A    between atoms: _662  and  _663
REMARK  269  A    between atoms: _663  and  _664
REMARK  270  A    between atoms: _670  and  _671
REMARK  271  A    between atoms: _676  and  _678
REMARK  272  A    between atoms: _678  and  _679
REMARK  273  A    between atoms: _678  and  _681
REMARK  274  A    between atoms: _681  and  _682
REMARK  275  A    between atoms: _685  and  _687
REMARK  276  A    between atoms: _687  and  _688
REMARK  277  A    between atoms: _687  and  _690
REMARK  278  A    between atoms: _690  and  _691
REMARK  279  A    between atoms: _691  and  _692
REMARK  280  A    between atoms: _695  and  _697
REMARK  281  A    between atoms: _697  and  _698
REMARK  282  A    between atoms: _697  and  _700
REMARK  283  A    between atoms: _703  and  _705
REMARK  284  A    between atoms: _705  and  _706
REMARK  285  A    between atoms: _705  and  _708
REMARK  286  A    between atoms: _708  and  _709
REMARK  287  A    between atoms: _709  and  _710
REMARK                            x       y       z     vdW  Elec       q    Type
REMARK                         _______ _______ _______ _____ _____    ______ ____
ROOT
ATOM      1  O   HOH     1      18.929 107.893   9.519  0.00  0.00    +0.000 OA
ENDROOT
TORSDOF 0
REMARK  Name = ../refined-set-2016/5tmp/5tmp_pocket.pdb
REMARK  287 active torsions:
REMARK  status: ('A' for Active; 'I' for Inactive)
REMARK    1  A    between atoms: _1  and  _3
REMARK    2  A    between atoms: _3  and  _4
REMARK    3  A    between atoms: _3  and  _6
REMARK    4  A    between atoms: _6  and  _7
REMARK    5  A    between atoms: _10  and  _12
REMARK    6  A    between atoms: _12  and  _13
REMARK    7  A    between atoms: _12  and  _15
REMARK    8  A    between atoms: _15  and  _16
REMARK    9  A    between atoms: _16  and  _17
REMARK   10  A    between atoms: _20  and  _22
REMARK   11  A    between atoms: _22  and  _23
REMARK   12  A    between atoms: _25  and  _27
REMARK   13  A    between atoms: _27  and  _28
REMARK   14  A    between atoms: _27  and  _30
REMARK   15  A    between atoms: _30  and  _31
REMARK   16  A    between atoms: _34  and  _36
REMARK   17  A    between atoms: _36  and  _37
REMARK   18  A    between atoms: _36  and  _39
REMARK   19  A    between atoms: _39  and  _40
REMARK   20  A    between atoms: _40  and  _41
REMARK   21  A    between atoms: _44  and  _46
REMARK   22  A    between atoms: _46  and  _47
REMARK   23  A    between atoms: _49  and  _51
REMARK   24  A    between atoms: _51  and  _52
REMARK   25  A    between atoms: _55  and  _57
REMARK   26  A    between atoms: _57  and  _58
REMARK   27  A    between atoms: _60  and  _62
REMARK   28  A    between atoms: _62  and  _63
REMARK   29  A    between atoms: _62  and  _65
REMARK   30  A    between atoms: _65  and  _66
REMARK   31  A    between atoms: _66  and  _67
REMARK   32  A    between atoms: _67  and  _68
REMARK   33  A    between atoms: _68  and  _69
REMARK   34  A    between atoms: _73  and  _75
REMARK   35  A    between atoms: _75  and  _76
REMARK   36  A    between atoms: _75  and  _78
REMARK   37  A    between atoms: _78  and  _79
REMARK   38  A    between atoms: _82  and  _84
REMARK   39  A    between atoms: _84  and  _85
REMARK   40  A    between atoms: _84  and  _87
REMARK   41  A    between atoms: _87  and  _88
REMARK   42  A    between atoms: _91  and  _93
REMARK   43  A    between atoms: _93  and  _94
REMARK   44  A    between atoms: _97  and  _99
REMARK   45  A    between atoms: _99  and  _100
REMARK   46  A    between atoms: _99  and  _102
REMARK   47  A    between atoms: _102  and  _103
REMARK   48  A    between atoms: _103  and  _104
REMARK   49  A    between atoms: _104  and  _105
REMARK   50  A    between atoms: _114  and  _116
REMARK   51  A    between atoms: _116  and  _117
REMARK   52  A    between atoms: _116  and  _119
REMARK   53  A    between atoms: _119  and  _120
REMARK   54  A    between atoms: _120  and  _121
REMARK   55  A    between atoms: _121  and  _122
REMARK   56  A    between atoms: _131  and  _133
REMARK   57  A    between atoms: _133  and  _134
REMARK   58  A    between atoms: _133  and  _136
REMARK   59  A    between atoms: _136  and  _137
REMARK   60  A    between atoms: _137  and  _138
REMARK   61  A    between atoms: _142  and  _143
REMARK   62  A    between atoms: _148  and  _150
REMARK   63  A    between atoms: _150  and  _151
REMARK   64  A    between atoms: _153  and  _155
REMARK   65  A    between atoms: _155  and  _156
REMARK   66  A    between atoms: _155  and  _158
REMARK   67  A    between atoms: _158  and  _159
REMARK   68  A    between atoms: _159  and  _160
REMARK   69  A    between atoms: _160  and  _161
REMARK   70  A    between atoms: _170  and  _172
REMARK   71  A    between atoms: _172  and  _173
REMARK   72  A    between atoms: _172  and  _175
REMARK   73  A    between atoms: _175  and  _176
REMARK   74  A    between atoms: _179  and  _181
REMARK   75  A    between atoms: _181  and  _182
REMARK   76  A    between atoms: _181  and  _184
REMARK   77  A    between atoms: _184  and  _185
REMARK   78  A    between atoms: _188  and  _190
REMARK   79  A    between atoms: _190  and  _191
REMARK   80  A    between atoms: _190  and  _193
REMARK   81  A    between atoms: _193  and  _194
REMARK   82  A    between atoms: _194  and  _195
REMARK   83  A    between atoms: _198  and  _200
REMARK   84  A    between atoms: _200  and  _201
REMARK   85  A    between atoms: _200  and  _203
REMARK   86  A    between atoms: _206  and  _208
REMARK   87  A    between atoms: _208  and  _209
REMARK   88  A    between atoms: _208  and  _211
REMARK   89  A    between atoms: _211  and  _212
REMARK   90  A    between atoms: _212  and  _213
REMARK   91  A    between atoms: _215  and  _217
REMARK   92  A    between atoms: _217  and  _218
REMARK   93  A    between atoms: _217  and  _220
REMARK   94  A    between atoms: _220  and  _221
REMARK   95  A    between atoms: _227  and  _229
REMARK   96  A    between atoms: _229  and  _230
REMARK   97  A    between atoms: _229  and  _232
REMARK   98  A    between atoms: _232  and  _233
REMARK   99  A    between atoms: _238  and  _239
REMARK  100  A    between atoms: _241  and  _243
REMARK  101  A    between atoms: _243  and  _244
REMARK  102  A    between atoms: _247  and  _249
REMARK  103  A    between atoms: _249  and  _250
REMARK  104  A    between atoms: _249  and  _252
REMARK  105  A    between atoms: _252  and  _253
REMARK  106  A    between atoms: _253  and  _254
REMARK  107  A    between atoms: _254  and  _255
REMARK  108  A    between atoms: _264  and  _266
REMARK  109  A    between atoms: _266  and  _267
REMARK  110  A    between atoms: _266  and  _269
REMARK  111  A    between atoms: _269  and  _270
REMARK  112  A    between atoms: _273  and  _275
REMARK  113  A    between atoms: _275  and  _276
REMARK  114  A    between atoms: _275  and  _278
REMARK  115  A    between atoms: _278  and  _279
REMARK  116  A    between atoms: _279  and  _280
REMARK  117  A    between atoms: _280  and  _281
REMARK  118  A    between atoms: _290  and  _292
REMARK  119  A    between atoms: _292  and  _293
REMARK  120  A    between atoms: _292  and  _295
REMARK  121  A    between atoms: _295  and  _296
REMARK  122  A    between atoms: _301  and  _303
REMARK  123  A    between atoms: _303  and  _304
REMARK  124  A    between atoms: _303  and  _306
REMARK  125  A    between atoms: _306  and  _307
REMARK  126  A    between atoms: _310  and  _312
REMARK  127  A    between atoms: _312  and  _313
REMARK  128  A    between atoms: _312  and  _315
REMARK  129  A    between atoms: _315  and  _316
REMARK  130  A    between atoms: _319  and  _321
REMARK  131  A    between atoms: _321  and  _322
REMARK  132  A    between atoms: _321  and  _324
REMARK  133  A    between atoms: _324  and  _325
REMARK  134  A    between atoms: _327  and  _329
REMARK  135  A    between atoms: _329  and  _330
REMARK  136  A    between atoms: _329  and  _332
REMARK  137  A    between atoms: _332  and  _333
REMARK  138  A    between atoms: _336  and  _338
REMARK  139  A    between atoms: _338  and  _339
REMARK  140  A    between atoms: _338  and  _341
REMARK  141  A    between atoms: _341  and  _342
REMARK  142  A    between atoms: _342  and  _343
REMARK  143  A    between atoms: _348  and  _350
REMARK  144  A    between atoms: _350  and  _351
REMARK  145  A    between atoms: _354  and  _356
REMARK  146  A    between atoms: _356  and  _357
REMARK  147  A    between atoms: _356  and  _359
REMARK  148  A    between atoms: _359  and  _360
REMARK  149  A    between atoms: _365  and  _366
REMARK  150  A    between atoms: _368  and  _370
REMARK  151  A    between atoms: _370  and  _371
REMARK  152  A    between atoms: _370  and  _373
REMARK  153  A    between atoms: _373  and  _374
REMARK  154  A    between atoms: _374  and  _375
REMARK  155  A    between atoms: _380  and  _382
REMARK  156  A    between atoms: _382  and  _383
REMARK  157  A    between atoms: _385  and  _387
REMARK  158  A    between atoms: _387  and  _388
REMARK  159  A    between atoms: _390  and  _392
REMARK  160  A    between atoms: _392  and  _393
REMARK  161  A    between atoms: _392  and  _395
REMARK  162  A    between atoms: _395  and  _396
REMARK  163  A    between atoms: _396  and  _397
REMARK  164  A    between atoms: _397  and  _398
REMARK  165  A    between atoms: _407  and  _409
REMARK  166  A    between atoms: _409  and  _410
REMARK  167  A    between atoms: _409  and  _412
REMARK  168  A    between atoms: _412  and  _413
REMARK  169  A    between atoms: _416  and  _418
REMARK  170  A    between atoms: _418  and  _419
REMARK  171  A    between atoms: _418  and  _421
REMARK  172  A    between atoms: _424  and  _426
REMARK  173  A    between atoms: _426  and  _427
REMARK  174  A    between atoms: _426  and  _429
REMARK  175  A    between atoms: _432  and  _434
REMARK  176  A    between atoms: _434  and  _435
REMARK  177  A    between atoms: _437  and  _439
REMARK  178  A    between atoms: _439  and  _440
REMARK  179  A    between atoms: _439  and  _442
REMARK  180  A    between atoms: _442  and  _443
REMARK  181  A    between atoms: _446  and  _448
REMARK  182  A    between atoms: _448  and  _449
REMARK  183  A    between atoms: _448  and  _451
REMARK  184  A    between atoms: _451  and  _452
REMARK  185  A    between atoms: _452  and  _453
REMARK  186  A    between atoms: _453  and  _454
REMARK  187  A    between atoms: _454  and  _455
REMARK  188  A    between atoms: _459  and  _461
REMARK  189  A    between atoms: _461  and  _462
REMARK  190  A    between atoms: _461  and  _464
REMARK  191  A    between atoms: _464  and  _465
REMARK  192  A    between atoms: _465  and  _466
REMARK  193  A    between atoms: _466  and  _467
REMARK  194  A    between atoms: _476  and  _478
REMARK  195  A    between atoms: _478  and  _479
REMARK  196  A    between atoms: _482  and  _484
REMARK  197  A    between atoms: _484  and  _485
REMARK  198  A    between atoms: _484  and  _487
REMARK  199  A    between atoms: _487  and  _488
REMARK  200  A    between atoms: _488  and  _489
REMARK  201  A    between atoms: _489  and  _490
REMARK  202  A    between atoms: _499  and  _501
REMARK  203  A    between atoms: _501  and  _502
REMARK  204  A    between atoms: _505  and  _507
REMARK  205  A    between atoms: _507  and  _508
REMARK  206  A    between atoms: _507  and  _510
REMARK  207  A    between atoms: _510  and  _511
REMARK  208  A    between atoms: _511  and  _512
REMARK  209  A    between atoms: _512  and  _513
REMARK  210  A    between atoms: _522  and  _524
REMARK  211  A    between atoms: _524  and  _525
REMARK  212  A    between atoms: _527  and  _529
REMARK  213  A    between atoms: _529  and  _530
REMARK  214  A    between atoms: _529  and  _532
REMARK  215  A    between atoms: _532  and  _533
REMARK  216  A    between atoms: _533  and  _534
REMARK  217  A    between atoms: _537  and  _539
REMARK  218  A    between atoms: _539  and  _540
REMARK  219  A    between atoms: _539  and  _542
REMARK  220  A    between atoms: _542  and  _543
REMARK  221  A    between atoms: _546  and  _548
REMARK  222  A    between atoms: _548  and  _549
REMARK  223  A    between atoms: _548  and  _551
REMARK  224  A    between atoms: _551  and  _552
REMARK  225  A    between atoms: _552  and  _553
REMARK  226  A    between atoms: _553  and  _554
REMARK  227  A    between atoms: _563  and  _565
REMARK  228  A    between atoms: _565  and  _566
REMARK  229  A    between atoms: _565  and  _568
REMARK  230  A    between atoms: _568  and  _569
REMARK  231  A    between atoms: _572  and  _574
REMARK  232  A    between atoms: _574  and  _575
REMARK  233  A    between atoms: _574  and  _577
REMARK  234  A    between atoms: _577  and  _578
REMARK  235  A    between atoms: _578  and  _579
REMARK  236  A    between atoms: _582  and  _584
REMARK  237  A    between atoms: _584  and  _585
REMARK  238  A    between atoms: _584  and  _587
REMARK  239  A    between atoms: _587  and  _588
REMARK  240  A    between atoms: _588  and  _589
REMARK  241  A    between atoms: _594  and  _596
REMARK  242  A    between atoms: _596  and  _597
REMARK  243  A    between atoms: _596  and  _599
REMARK  244  A    between atoms: _599  and  _600
REMARK  245  A    between atoms: _600  and  _601
REMARK  246  A    between atoms: _604  and  _606
REMARK  247  A    between atoms: _606  and  _607
REMARK  248  A    between atoms: _606  and  _609
REMARK  249  A    between atoms: _609  and  _610
REMARK  250  A    between atoms: _616  and  _618
REMARK  251  A    between atoms: _618  and  _619
REMARK  252  A    between atoms: _618  and  _621
REMARK  253  A    between atoms: _621  and  _622
REMARK  254  A    between atoms: _628  and  _630
REMARK  255  A    between atoms: _630  and  _631
REMARK  256  A    between atoms: _630  and  _633
REMARK  257  A    between atoms: _633  and  _634
REMARK  258  A    between atoms: _637  and  _639
REMARK  259  A    between atoms: _639  and  _640
REMARK  260  A    between atoms: _639  and  _642
REMARK  261  A    between atoms: _642  and  _643
REMARK  262  A    between atoms: _648  and  _649
REMARK  263  A    between atoms: _651  and  _653
REMARK  264  A    between atoms: _653  and  _654
REMARK  265  A    between atoms: _657  and  _659
REMARK  266  A    between atoms: _659  and  _660
REMARK  267  A    between atoms: _659  and  _662
REMARK  268  A    between atoms: _662  and  _663
REMARK  269  A    between atoms: _663  and  _664
REMARK  270  A    between atoms: _670  and  _671
REMARK  271  A    between atoms: _676  and  _678
REMARK  272  A    between atoms: _678  and  _679
REMARK  273  A    between atoms: _678  and  _681
REMARK  274  A    between atoms: _681  and  _682
REMARK  275  A    between atoms: _685  and  _687
REMARK  276  A    between atoms: _687  and  _688
REMARK  277  A    between atoms: _687  and  _690
REMARK  278  A    between atoms: _690  and  _691
REMARK  279  A    between atoms: _691  and  _692
REMARK  280  A    between atoms: _695  and  _697
REMARK  281  A    between atoms: _697  and  _698
REMARK  282  A    between atoms: _697  and  _700
REMARK  283  A    between atoms: _703  and  _705
REMARK  284  A    between atoms: _705  and  _706
REMARK  285  A    between atoms: _705  and  _708
REMARK  286  A    between atoms: _708  and  _709
REMARK  287  A    between atoms: _709  and  _710
REMARK                            x       y       z     vdW  Elec       q    Type
REMARK                         _______ _______ _______ _____ _____    ______ ____
ROOT
ATOM      1  O   HOH     1      21.400 107.170  17.723  0.00  0.00    +0.000 OA
ENDROOT
TORSDOF 0
REMARK  Name = ../refined-set-2016/5tmp/5tmp_pocket.pdb
REMARK  287 active torsions:
REMARK  status: ('A' for Active; 'I' for Inactive)
REMARK    1  A    between atoms: _1  and  _3
REMARK    2  A    between atoms: _3  and  _4
REMARK    3  A    between atoms: _3  and  _6
REMARK    4  A    between atoms: _6  and  _7
REMARK    5  A    between atoms: _10  and  _12
REMARK    6  A    between atoms: _12  and  _13
REMARK    7  A    between atoms: _12  and  _15
REMARK    8  A    between atoms: _15  and  _16
REMARK    9  A    between atoms: _16  and  _17
REMARK   10  A    between atoms: _20  and  _22
REMARK   11  A    between atoms: _22  and  _23
REMARK   12  A    between atoms: _25  and  _27
REMARK   13  A    between atoms: _27  and  _28
REMARK   14  A    between atoms: _27  and  _30
REMARK   15  A    between atoms: _30  and  _31
REMARK   16  A    between atoms: _34  and  _36
REMARK   17  A    between atoms: _36  and  _37
REMARK   18  A    between atoms: _36  and  _39
REMARK   19  A    between atoms: _39  and  _40
REMARK   20  A    between atoms: _40  and  _41
REMARK   21  A    between atoms: _44  and  _46
REMARK   22  A    between atoms: _46  and  _47
REMARK   23  A    between atoms: _49  and  _51
REMARK   24  A    between atoms: _51  and  _52
REMARK   25  A    between atoms: _55  and  _57
REMARK   26  A    between atoms: _57  and  _58
REMARK   27  A    between atoms: _60  and  _62
REMARK   28  A    between atoms: _62  and  _63
REMARK   29  A    between atoms: _62  and  _65
REMARK   30  A    between atoms: _65  and  _66
REMARK   31  A    between atoms: _66  and  _67
REMARK   32  A    between atoms: _67  and  _68
REMARK   33  A    between atoms: _68  and  _69
REMARK   34  A    between atoms: _73  and  _75
REMARK   35  A    between atoms: _75  and  _76
REMARK   36  A    between atoms: _75  and  _78
REMARK   37  A    between atoms: _78  and  _79
REMARK   38  A    between atoms: _82  and  _84
REMARK   39  A    between atoms: _84  and  _85
REMARK   40  A    between atoms: _84  and  _87
REMARK   41  A    between atoms: _87  and  _88
REMARK   42  A    between atoms: _91  and  _93
REMARK   43  A    between atoms: _93  and  _94
REMARK   44  A    between atoms: _97  and  _99
REMARK   45  A    between atoms: _99  and  _100
REMARK   46  A    between atoms: _99  and  _102
REMARK   47  A    between atoms: _102  and  _103
REMARK   48  A    between atoms: _103  and  _104
REMARK   49  A    between atoms: _104  and  _105
REMARK   50  A    between atoms: _114  and  _116
REMARK   51  A    between atoms: _116  and  _117
REMARK   52  A    between atoms: _116  and  _119
REMARK   53  A    between atoms: _119  and  _120
REMARK   54  A    between atoms: _120  and  _121
REMARK   55  A    between atoms: _121  and  _122
REMARK   56  A    between atoms: _131  and  _133
REMARK   57  A    between atoms: _133  and  _134
REMARK   58  A    between atoms: _133  and  _136
REMARK   59  A    between atoms: _136  and  _137
REMARK   60  A    between atoms: _137  and  _138
REMARK   61  A    between atoms: _142  and  _143
REMARK   62  A    between atoms: _148  and  _150
REMARK   63  A    between atoms: _150  and  _151
REMARK   64  A    between atoms: _153  and  _155
REMARK   65  A    between atoms: _155  and  _156
REMARK   66  A    between atoms: _155  and  _158
REMARK   67  A    between atoms: _158  and  _159
REMARK   68  A    between atoms: _159  and  _160
REMARK   69  A    between atoms: _160  and  _161
REMARK   70  A    between atoms: _170  and  _172
REMARK   71  A    between atoms: _172  and  _173
REMARK   72  A    between atoms: _172  and  _175
REMARK   73  A    between atoms: _175  and  _176
REMARK   74  A    between atoms: _179  and  _181
REMARK   75  A    between atoms: _181  and  _182
REMARK   76  A    between atoms: _181  and  _184
REMARK   77  A    between atoms: _184  and  _185
REMARK   78  A    between atoms: _188  and  _190
REMARK   79  A    between atoms: _190  and  _191
REMARK   80  A    between atoms: _190  and  _193
REMARK   81  A    between atoms: _193  and  _194
REMARK   82  A    between atoms: _194  and  _195
REMARK   83  A    between atoms: _198  and  _200
REMARK   84  A    between atoms: _200  and  _201
REMARK   85  A    between atoms: _200  and  _203
REMARK   86  A    between atoms: _206  and  _208
REMARK   87  A    between atoms: _208  and  _209
REMARK   88  A    between atoms: _208  and  _211
REMARK   89  A    between atoms: _211  and  _212
REMARK   90  A    between atoms: _212  and  _213
REMARK   91  A    between atoms: _215  and  _217
REMARK   92  A    between atoms: _217  and  _218
REMARK   93  A    between atoms: _217  and  _220
REMARK   94  A    between atoms: _220  and  _221
REMARK   95  A    between atoms: _227  and  _229
REMARK   96  A    between atoms: _229  and  _230
REMARK   97  A    between atoms: _229  and  _232
REMARK   98  A    between atoms: _232  and  _233
REMARK   99  A    between atoms: _238  and  _239
REMARK  100  A    between atoms: _241  and  _243
REMARK  101  A    between atoms: _243  and  _244
REMARK  102  A    between atoms: _247  and  _249
REMARK  103  A    between atoms: _249  and  _250
REMARK  104  A    between atoms: _249  and  _252
REMARK  105  A    between atoms: _252  and  _253
REMARK  106  A    between atoms: _253  and  _254
REMARK  107  A    between atoms: _254  and  _255
REMARK  108  A    between atoms: _264  and  _266
REMARK  109  A    between atoms: _266  and  _267
REMARK  110  A    between atoms: _266  and  _269
REMARK  111  A    between atoms: _269  and  _270
REMARK  112  A    between atoms: _273  and  _275
REMARK  113  A    between atoms: _275  and  _276
REMARK  114  A    between atoms: _275  and  _278
REMARK  115  A    between atoms: _278  and  _279
REMARK  116  A    between atoms: _279  and  _280
REMARK  117  A    between atoms: _280  and  _281
REMARK  118  A    between atoms: _290  and  _292
REMARK  119  A    between atoms: _292  and  _293
REMARK  120  A    between atoms: _292  and  _295
REMARK  121  A    between atoms: _295  and  _296
REMARK  122  A    between atoms: _301  and  _303
REMARK  123  A    between atoms: _303  and  _304
REMARK  124  A    between atoms: _303  and  _306
REMARK  125  A    between atoms: _306  and  _307
REMARK  126  A    between atoms: _310  and  _312
REMARK  127  A    between atoms: _312  and  _313
REMARK  128  A    between atoms: _312  and  _315
REMARK  129  A    between atoms: _315  and  _316
REMARK  130  A    between atoms: _319  and  _321
REMARK  131  A    between atoms: _321  and  _322
REMARK  132  A    between atoms: _321  and  _324
REMARK  133  A    between atoms: _324  and  _325
REMARK  134  A    between atoms: _327  and  _329
REMARK  135  A    between atoms: _329  and  _330
REMARK  136  A    between atoms: _329  and  _332
REMARK  137  A    between atoms: _332  and  _333
REMARK  138  A    between atoms: _336  and  _338
REMARK  139  A    between atoms: _338  and  _339
REMARK  140  A    between atoms: _338  and  _341
REMARK  141  A    between atoms: _341  and  _342
REMARK  142  A    between atoms: _342  and  _343
REMARK  143  A    between atoms: _348  and  _350
REMARK  144  A    between atoms: _350  and  _351
REMARK  145  A    between atoms: _354  and  _356
REMARK  146  A    between atoms: _356  and  _357
REMARK  147  A    between atoms: _356  and  _359
REMARK  148  A    between atoms: _359  and  _360
REMARK  149  A    between atoms: _365  and  _366
REMARK  150  A    between atoms: _368  and  _370
REMARK  151  A    between atoms: _370  and  _371
REMARK  152  A    between atoms: _370  and  _373
REMARK  153  A    between atoms: _373  and  _374
REMARK  154  A    between atoms: _374  and  _375
REMARK  155  A    between atoms: _380  and  _382
REMARK  156  A    between atoms: _382  and  _383
REMARK  157  A    between atoms: _385  and  _387
REMARK  158  A    between atoms: _387  and  _388
REMARK  159  A    between atoms: _390  and  _392
REMARK  160  A    between atoms: _392  and  _393
REMARK  161  A    between atoms: _392  and  _395
REMARK  162  A    between atoms: _395  and  _396
REMARK  163  A    between atoms: _396  and  _397
REMARK  164  A    between atoms: _397  and  _398
REMARK  165  A    between atoms: _407  and  _409
REMARK  166  A    between atoms: _409  and  _410
REMARK  167  A    between atoms: _409  and  _412
REMARK  168  A    between atoms: _412  and  _413
REMARK  169  A    between atoms: _416  and  _418
REMARK  170  A    between atoms: _418  and  _419
REMARK  171  A    between atoms: _418  and  _421
REMARK  172  A    between atoms: _424  and  _426
REMARK  173  A    between atoms: _426  and  _427
REMARK  174  A    between atoms: _426  and  _429
REMARK  175  A    between atoms: _432  and  _434
REMARK  176  A    between atoms: _434  and  _435
REMARK  177  A    between atoms: _437  and  _439
REMARK  178  A    between atoms: _439  and  _440
REMARK  179  A    between atoms: _439  and  _442
REMARK  180  A    between atoms: _442  and  _443
REMARK  181  A    between atoms: _446  and  _448
REMARK  182  A    between atoms: _448  and  _449
REMARK  183  A    between atoms: _448  and  _451
REMARK  184  A    between atoms: _451  and  _452
REMARK  185  A    between atoms: _452  and  _453
REMARK  186  A    between atoms: _453  and  _454
REMARK  187  A    between atoms: _454  and  _455
REMARK  188  A    between atoms: _459  and  _461
REMARK  189  A    between atoms: _461  and  _462
REMARK  190  A    between atoms: _461  and  _464
REMARK  191  A    between atoms: _464  and  _465
REMARK  192  A    between atoms: _465  and  _466
REMARK  193  A    between atoms: _466  and  _467
REMARK  194  A    between atoms: _476  and  _478
REMARK  195  A    between atoms: _478  and  _479
REMARK  196  A    between atoms: _482  and  _484
REMARK  197  A    between atoms: _484  and  _485
REMARK  198  A    between atoms: _484  and  _487
REMARK  199  A    between atoms: _487  and  _488
REMARK  200  A    between atoms: _488  and  _489
REMARK  201  A    between atoms: _489  and  _490
REMARK  202  A    between atoms: _499  and  _501
REMARK  203  A    between atoms: _501  and  _502
REMARK  204  A    between atoms: _505  and  _507
REMARK  205  A    between atoms: _507  and  _508
REMARK  206  A    between atoms: _507  and  _510
REMARK  207  A    between atoms: _510  and  _511
REMARK  208  A    between atoms: _511  and  _512
REMARK  209  A    between atoms: _512  and  _513
REMARK  210  A    between atoms: _522  and  _524
REMARK  211  A    between atoms: _524  and  _525
REMARK  212  A    between atoms: _527  and  _529
REMARK  213  A    between atoms: _529  and  _530
REMARK  214  A    between atoms: _529  and  _532
REMARK  215  A    between atoms: _532  and  _533
REMARK  216  A    between atoms: _533  and  _534
REMARK  217  A    between atoms: _537  and  _539
REMARK  218  A    between atoms: _539  and  _540
REMARK  219  A    between atoms: _539  and  _542
REMARK  220  A    between atoms: _542  and  _543
REMARK  221  A    between atoms: _546  and  _548
REMARK  222  A    between atoms: _548  and  _549
REMARK  223  A    between atoms: _548  and  _551
REMARK  224  A    between atoms: _551  and  _552
REMARK  225  A    between atoms: _552  and  _553
REMARK  226  A    between atoms: _553  and  _554
REMARK  227  A    between atoms: _563  and  _565
REMARK  228  A    between atoms: _565  and  _566
REMARK  229  A    between atoms: _565  and  _568
REMARK  230  A    between atoms: _568  and  _569
REMARK  231  A    between atoms: _572  and  _574
REMARK  232  A    between atoms: _574  and  _575
REMARK  233  A    between atoms: _574  and  _577
REMARK  234  A    between atoms: _577  and  _578
REMARK  235  A    between atoms: _578  and  _579
REMARK  236  A    between atoms: _582  and  _584
REMARK  237  A    between atoms: _584  and  _585
REMARK  238  A    between atoms: _584  and  _587
REMARK  239  A    between atoms: _587  and  _588
REMARK  240  A    between atoms: _588  and  _589
REMARK  241  A    between atoms: _594  and  _596
REMARK  242  A    between atoms: _596  and  _597
REMARK  243  A    between atoms: _596  and  _599
REMARK  244  A    between atoms: _599  and  _600
REMARK  245  A    between atoms: _600  and  _601
REMARK  246  A    between atoms: _604  and  _606
REMARK  247  A    between atoms: _606  and  _607
REMARK  248  A    between atoms: _606  and  _609
REMARK  249  A    between atoms: _609  and  _610
REMARK  250  A    between atoms: _616  and  _618
REMARK  251  A    between atoms: _618  and  _619
REMARK  252  A    between atoms: _618  and  _621
REMARK  253  A    between atoms: _621  and  _622
REMARK  254  A    between atoms: _628  and  _630
REMARK  255  A    between atoms: _630  and  _631
REMARK  256  A    between atoms: _630  and  _633
REMARK  257  A    between atoms: _633  and  _634
REMARK  258  A    between atoms: _637  and  _639
REMARK  259  A    between atoms: _639  and  _640
REMARK  260  A    between atoms: _639  and  _642
REMARK  261  A    between atoms: _642  and  _643
REMARK  262  A    between atoms: _648  and  _649
REMARK  263  A    between atoms: _651  and  _653
REMARK  264  A    between atoms: _653  and  _654
REMARK  265  A    between atoms: _657  and  _659
REMARK  266  A    between atoms: _659  and  _660
REMARK  267  A    between atoms: _659  and  _662
REMARK  268  A    between atoms: _662  and  _663
REMARK  269  A    between atoms: _663  and  _664
REMARK  270  A    between atoms: _670  and  _671
REMARK  271  A    between atoms: _676  and  _678
REMARK  272  A    between atoms: _678  and  _679
REMARK  273  A    between atoms: _678  and  _681
REMARK  274  A    between atoms: _681  and  _682
REMARK  275  A    between atoms: _685  and  _687
REMARK  276  A    between atoms: _687  and  _688
REMARK  277  A    between atoms: _687  and  _690
REMARK  278  A    between atoms: _690  and  _691
REMARK  279  A    between atoms: _691  and  _692
REMARK  280  A    between atoms: _695  and  _697
REMARK  281  A    between atoms: _697  and  _698
REMARK  282  A    between atoms: _697  and  _700
REMARK  283  A    between atoms: _703  and  _705
REMARK  284  A    between atoms: _705  and  _706
REMARK  285  A    between atoms: _705  and  _708
REMARK  286  A    between atoms: _708  and  _709
REMARK  287  A    between atoms: _709  and  _710
REMARK                            x       y       z     vdW  Elec       q    Type
REMARK                         _______ _______ _______ _____ _____    ______ ____
ROOT
ATOM      1  O   HOH     1      14.468 114.163  21.910  0.00  0.00    +0.000 OA
ENDROOT
TORSDOF 0
REMARK  Name = ../refined-set-2016/5tmp/5tmp_pocket.pdb
REMARK  287 active torsions:
REMARK  status: ('A' for Active; 'I' for Inactive)
REMARK    1  A    between atoms: _1  and  _3
REMARK    2  A    between atoms: _3  and  _4
REMARK    3  A    between atoms: _3  and  _6
REMARK    4  A    between atoms: _6  and  _7
REMARK    5  A    between atoms: _10  and  _12
REMARK    6  A    between atoms: _12  and  _13
REMARK    7  A    between atoms: _12  and  _15
REMARK    8  A    between atoms: _15  and  _16
REMARK    9  A    between atoms: _16  and  _17
REMARK   10  A    between atoms: _20  and  _22
REMARK   11  A    between atoms: _22  and  _23
REMARK   12  A    between atoms: _25  and  _27
REMARK   13  A    between atoms: _27  and  _28
REMARK   14  A    between atoms: _27  and  _30
REMARK   15  A    between atoms: _30  and  _31
REMARK   16  A    between atoms: _34  and  _36
REMARK   17  A    between atoms: _36  and  _37
REMARK   18  A    between atoms: _36  and  _39
REMARK   19  A    between atoms: _39  and  _40
REMARK   20  A    between atoms: _40  and  _41
REMARK   21  A    between atoms: _44  and  _46
REMARK   22  A    between atoms: _46  and  _47
REMARK   23  A    between atoms: _49  and  _51
REMARK   24  A    between atoms: _51  and  _52
REMARK   25  A    between atoms: _55  and  _57
REMARK   26  A    between atoms: _57  and  _58
REMARK   27  A    between atoms: _60  and  _62
REMARK   28  A    between atoms: _62  and  _63
REMARK   29  A    between atoms: _62  and  _65
REMARK   30  A    between atoms: _65  and  _66
REMARK   31  A    between atoms: _66  and  _67
REMARK   32  A    between atoms: _67  and  _68
REMARK   33  A    between atoms: _68  and  _69
REMARK   34  A    between atoms: _73  and  _75
REMARK   35  A    between atoms: _75  and  _76
REMARK   36  A    between atoms: _75  and  _78
REMARK   37  A    between atoms: _78  and  _79
REMARK   38  A    between atoms: _82  and  _84
REMARK   39  A    between atoms: _84  and  _85
REMARK   40  A    between atoms: _84  and  _87
REMARK   41  A    between atoms: _87  and  _88
REMARK   42  A    between atoms: _91  and  _93
REMARK   43  A    between atoms: _93  and  _94
REMARK   44  A    between atoms: _97  and  _99
REMARK   45  A    between atoms: _99  and  _100
REMARK   46  A    between atoms: _99  and  _102
REMARK   47  A    between atoms: _102  and  _103
REMARK   48  A    between atoms: _103  and  _104
REMARK   49  A    between atoms: _104  and  _105
REMARK   50  A    between atoms: _114  and  _116
REMARK   51  A    between atoms: _116  and  _117
REMARK   52  A    between atoms: _116  and  _119
REMARK   53  A    between atoms: _119  and  _120
REMARK   54  A    between atoms: _120  and  _121
REMARK   55  A    between atoms: _121  and  _122
REMARK   56  A    between atoms: _131  and  _133
REMARK   57  A    between atoms: _133  and  _134
REMARK   58  A    between atoms: _133  and  _136
REMARK   59  A    between atoms: _136  and  _137
REMARK   60  A    between atoms: _137  and  _138
REMARK   61  A    between atoms: _142  and  _143
REMARK   62  A    between atoms: _148  and  _150
REMARK   63  A    between atoms: _150  and  _151
REMARK   64  A    between atoms: _153  and  _155
REMARK   65  A    between atoms: _155  and  _156
REMARK   66  A    between atoms: _155  and  _158
REMARK   67  A    between atoms: _158  and  _159
REMARK   68  A    between atoms: _159  and  _160
REMARK   69  A    between atoms: _160  and  _161
REMARK   70  A    between atoms: _170  and  _172
REMARK   71  A    between atoms: _172  and  _173
REMARK   72  A    between atoms: _172  and  _175
REMARK   73  A    between atoms: _175  and  _176
REMARK   74  A    between atoms: _179  and  _181
REMARK   75  A    between atoms: _181  and  _182
REMARK   76  A    between atoms: _181  and  _184
REMARK   77  A    between atoms: _184  and  _185
REMARK   78  A    between atoms: _188  and  _190
REMARK   79  A    between atoms: _190  and  _191
REMARK   80  A    between atoms: _190  and  _193
REMARK   81  A    between atoms: _193  and  _194
REMARK   82  A    between atoms: _194  and  _195
REMARK   83  A    between atoms: _198  and  _200
REMARK   84  A    between atoms: _200  and  _201
REMARK   85  A    between atoms: _200  and  _203
REMARK   86  A    between atoms: _206  and  _208
REMARK   87  A    between atoms: _208  and  _209
REMARK   88  A    between atoms: _208  and  _211
REMARK   89  A    between atoms: _211  and  _212
REMARK   90  A    between atoms: _212  and  _213
REMARK   91  A    between atoms: _215  and  _217
REMARK   92  A    between atoms: _217  and  _218
REMARK   93  A    between atoms: _217  and  _220
REMARK   94  A    between atoms: _220  and  _221
REMARK   95  A    between atoms: _227  and  _229
REMARK   96  A    between atoms: _229  and  _230
REMARK   97  A    between atoms: _229  and  _232
REMARK   98  A    between atoms: _232  and  _233
REMARK   99  A    between atoms: _238  and  _239
REMARK  100  A    between atoms: _241  and  _243
REMARK  101  A    between atoms: _243  and  _244
REMARK  102  A    between atoms: _247  and  _249
REMARK  103  A    between atoms: _249  and  _250
REMARK  104  A    between atoms: _249  and  _252
REMARK  105  A    between atoms: _252  and  _253
REMARK  106  A    between atoms: _253  and  _254
REMARK  107  A    between atoms: _254  and  _255
REMARK  108  A    between atoms: _264  and  _266
REMARK  109  A    between atoms: _266  and  _267
REMARK  110  A    between atoms: _266  and  _269
REMARK  111  A    between atoms: _269  and  _270
REMARK  112  A    between atoms: _273  and  _275
REMARK  113  A    between atoms: _275  and  _276
REMARK  114  A    between atoms: _275  and  _278
REMARK  115  A    between atoms: _278  and  _279
REMARK  116  A    between atoms: _279  and  _280
REMARK  117  A    between atoms: _280  and  _281
REMARK  118  A    between atoms: _290  and  _292
REMARK  119  A    between atoms: _292  and  _293
REMARK  120  A    between atoms: _292  and  _295
REMARK  121  A    between atoms: _295  and  _296
REMARK  122  A    between atoms: _301  and  _303
REMARK  123  A    between atoms: _303  and  _304
REMARK  124  A    between atoms: _303  and  _306
REMARK  125  A    between atoms: _306  and  _307
REMARK  126  A    between atoms: _310  and  _312
REMARK  127  A    between atoms: _312  and  _313
REMARK  128  A    between atoms: _312  and  _315
REMARK  129  A    between atoms: _315  and  _316
REMARK  130  A    between atoms: _319  and  _321
REMARK  131  A    between atoms: _321  and  _322
REMARK  132  A    between atoms: _321  and  _324
REMARK  133  A    between atoms: _324  and  _325
REMARK  134  A    between atoms: _327  and  _329
REMARK  135  A    between atoms: _329  and  _330
REMARK  136  A    between atoms: _329  and  _332
REMARK  137  A    between atoms: _332  and  _333
REMARK  138  A    between atoms: _336  and  _338
REMARK  139  A    between atoms: _338  and  _339
REMARK  140  A    between atoms: _338  and  _341
REMARK  141  A    between atoms: _341  and  _342
REMARK  142  A    between atoms: _342  and  _343
REMARK  143  A    between atoms: _348  and  _350
REMARK  144  A    between atoms: _350  and  _351
REMARK  145  A    between atoms: _354  and  _356
REMARK  146  A    between atoms: _356  and  _357
REMARK  147  A    between atoms: _356  and  _359
REMARK  148  A    between atoms: _359  and  _360
REMARK  149  A    between atoms: _365  and  _366
REMARK  150  A    between atoms: _368  and  _370
REMARK  151  A    between atoms: _370  and  _371
REMARK  152  A    between atoms: _370  and  _373
REMARK  153  A    between atoms: _373  and  _374
REMARK  154  A    between atoms: _374  and  _375
REMARK  155  A    between atoms: _380  and  _382
REMARK  156  A    between atoms: _382  and  _383
REMARK  157  A    between atoms: _385  and  _387
REMARK  158  A    between atoms: _387  and  _388
REMARK  159  A    between atoms: _390  and  _392
REMARK  160  A    between atoms: _392  and  _393
REMARK  161  A    between atoms: _392  and  _395
REMARK  162  A    between atoms: _395  and  _396
REMARK  163  A    between atoms: _396  and  _397
REMARK  164  A    between atoms: _397  and  _398
REMARK  165  A    between atoms: _407  and  _409
REMARK  166  A    between atoms: _409  and  _410
REMARK  167  A    between atoms: _409  and  _412
REMARK  168  A    between atoms: _412  and  _413
REMARK  169  A    between atoms: _416  and  _418
REMARK  170  A    between atoms: _418  and  _419
REMARK  171  A    between atoms: _418  and  _421
REMARK  172  A    between atoms: _424  and  _426
REMARK  173  A    between atoms: _426  and  _427
REMARK  174  A    between atoms: _426  and  _429
REMARK  175  A    between atoms: _432  and  _434
REMARK  176  A    between atoms: _434  and  _435
REMARK  177  A    between atoms: _437  and  _439
REMARK  178  A    between atoms: _439  and  _440
REMARK  179  A    between atoms: _439  and  _442
REMARK  180  A    between atoms: _442  and  _443
REMARK  181  A    between atoms: _446  and  _448
REMARK  182  A    between atoms: _448  and  _449
REMARK  183  A    between atoms: _448  and  _451
REMARK  184  A    between atoms: _451  and  _452
REMARK  185  A    between atoms: _452  and  _453
REMARK  186  A    between atoms: _453  and  _454
REMARK  187  A    between atoms: _454  and  _455
REMARK  188  A    between atoms: _459  and  _461
REMARK  189  A    between atoms: _461  and  _462
REMARK  190  A    between atoms: _461  and  _464
REMARK  191  A    between atoms: _464  and  _465
REMARK  192  A    between atoms: _465  and  _466
REMARK  193  A    between atoms: _466  and  _467
REMARK  194  A    between atoms: _476  and  _478
REMARK  195  A    between atoms: _478  and  _479
REMARK  196  A    between atoms: _482  and  _484
REMARK  197  A    between atoms: _484  and  _485
REMARK  198  A    between atoms: _484  and  _487
REMARK  199  A    between atoms: _487  and  _488
REMARK  200  A    between atoms: _488  and  _489
REMARK  201  A    between atoms: _489  and  _490
REMARK  202  A    between atoms: _499  and  _501
REMARK  203  A    between atoms: _501  and  _502
REMARK  204  A    between atoms: _505  and  _507
REMARK  205  A    between atoms: _507  and  _508
REMARK  206  A    between atoms: _507  and  _510
REMARK  207  A    between atoms: _510  and  _511
REMARK  208  A    between atoms: _511  and  _512
REMARK  209  A    between atoms: _512  and  _513
REMARK  210  A    between atoms: _522  and  _524
REMARK  211  A    between atoms: _524  and  _525
REMARK  212  A    between atoms: _527  and  _529
REMARK  213  A    between atoms: _529  and  _530
REMARK  214  A    between atoms: _529  and  _532
REMARK  215  A    between atoms: _532  and  _533
REMARK  216  A    between atoms: _533  and  _534
REMARK  217  A    between atoms: _537  and  _539
REMARK  218  A    between atoms: _539  and  _540
REMARK  219  A    between atoms: _539  and  _542
REMARK  220  A    between atoms: _542  and  _543
REMARK  221  A    between atoms: _546  and  _548
REMARK  222  A    between atoms: _548  and  _549
REMARK  223  A    between atoms: _548  and  _551
REMARK  224  A    between atoms: _551  and  _552
REMARK  225  A    between atoms: _552  and  _553
REMARK  226  A    between atoms: _553  and  _554
REMARK  227  A    between atoms: _563  and  _565
REMARK  228  A    between atoms: _565  and  _566
REMARK  229  A    between atoms: _565  and  _568
REMARK  230  A    between atoms: _568  and  _569
REMARK  231  A    between atoms: _572  and  _574
REMARK  232  A    between atoms: _574  and  _575
REMARK  233  A    between atoms: _574  and  _577
REMARK  234  A    between atoms: _577  and  _578
REMARK  235  A    between atoms: _578  and  _579
REMARK  236  A    between atoms: _582  and  _584
REMARK  237  A    between atoms: _584  and  _585
REMARK  238  A    between atoms: _584  and  _587
REMARK  239  A    between atoms: _587  and  _588
REMARK  240  A    between atoms: _588  and  _589
REMARK  241  A    between atoms: _594  and  _596
REMARK  242  A    between atoms: _596  and  _597
REMARK  243  A    between atoms: _596  and  _599
REMARK  244  A    between atoms: _599  and  _600
REMARK  245  A    between atoms: _600  and  _601
REMARK  246  A    between atoms: _604  and  _606
REMARK  247  A    between atoms: _606  and  _607
REMARK  248  A    between atoms: _606  and  _609
REMARK  249  A    between atoms: _609  and  _610
REMARK  250  A    between atoms: _616  and  _618
REMARK  251  A    between atoms: _618  and  _619
REMARK  252  A    between atoms: _618  and  _621
REMARK  253  A    between atoms: _621  and  _622
REMARK  254  A    between atoms: _628  and  _630
REMARK  255  A    between atoms: _630  and  _631
REMARK  256  A    between atoms: _630  and  _633
REMARK  257  A    between atoms: _633  and  _634
REMARK  258  A    between atoms: _637  and  _639
REMARK  259  A    between atoms: _639  and  _640
REMARK  260  A    between atoms: _639  and  _642
REMARK  261  A    between atoms: _642  and  _643
REMARK  262  A    between atoms: _648  and  _649
REMARK  263  A    between atoms: _651  and  _653
REMARK  264  A    between atoms: _653  and  _654
REMARK  265  A    between atoms: _657  and  _659
REMARK  266  A    between atoms: _659  and  _660
REMARK  267  A    between atoms: _659  and  _662
REMARK  268  A    between atoms: _662  and  _663
REMARK  269  A    between atoms: _663  and  _664
REMARK  270  A    between atoms: _670  and  _671
REMARK  271  A    between atoms: _676  and  _678
REMARK  272  A    between atoms: _678  and  _679
REMARK  273  A    between atoms: _678  and  _681
REMARK  274  A    between atoms: _681  and  _682
REMARK  275  A    between atoms: _685  and  _687
REMARK  276  A    between atoms: _687  and  _688
REMARK  277  A    between atoms: _687  and  _690
REMARK  278  A    between atoms: _690  and  _691
REMARK  279  A    between atoms: _691  and  _692
REMARK  280  A    between atoms: _695  and  _697
REMARK  281  A    between atoms: _697  and  _698
REMARK  282  A    between atoms: _697  and  _700
REMARK  283  A    between atoms: _703  and  _705
REMARK  284  A    between atoms: _705  and  _706
REMARK  285  A    between atoms: _705  and  _708
REMARK  286  A    between atoms: _708  and  _709
REMARK  287  A    between atoms: _709  and  _710
REMARK                            x       y       z     vdW  Elec       q    Type
REMARK                         _______ _______ _______ _____ _____    ______ ____
ROOT
ATOM      1  O   HOH     1      23.264  97.539   8.302  0.00  0.00    +0.000 OA
ENDROOT
TORSDOF 0
REMARK  Name = ../refined-set-2016/5tmp/5tmp_pocket.pdb
REMARK  287 active torsions:
REMARK  status: ('A' for Active; 'I' for Inactive)
REMARK    1  A    between atoms: _1  and  _3
REMARK    2  A    between atoms: _3  and  _4
REMARK    3  A    between atoms: _3  and  _6
REMARK    4  A    between atoms: _6  and  _7
REMARK    5  A    between atoms: _10  and  _12
REMARK    6  A    between atoms: _12  and  _13
REMARK    7  A    between atoms: _12  and  _15
REMARK    8  A    between atoms: _15  and  _16
REMARK    9  A    between atoms: _16  and  _17
REMARK   10  A    between atoms: _20  and  _22
REMARK   11  A    between atoms: _22  and  _23
REMARK   12  A    between atoms: _25  and  _27
REMARK   13  A    between atoms: _27  and  _28
REMARK   14  A    between atoms: _27  and  _30
REMARK   15  A    between atoms: _30  and  _31
REMARK   16  A    between atoms: _34  and  _36
REMARK   17  A    between atoms: _36  and  _37
REMARK   18  A    between atoms: _36  and  _39
REMARK   19  A    between atoms: _39  and  _40
REMARK   20  A    between atoms: _40  and  _41
REMARK   21  A    between atoms: _44  and  _46
REMARK   22  A    between atoms: _46  and  _47
REMARK   23  A    between atoms: _49  and  _51
REMARK   24  A    between atoms: _51  and  _52
REMARK   25  A    between atoms: _55  and  _57
REMARK   26  A    between atoms: _57  and  _58
REMARK   27  A    between atoms: _60  and  _62
REMARK   28  A    between atoms: _62  and  _63
REMARK   29  A    between atoms: _62  and  _65
REMARK   30  A    between atoms: _65  and  _66
REMARK   31  A    between atoms: _66  and  _67
REMARK   32  A    between atoms: _67  and  _68
REMARK   33  A    between atoms: _68  and  _69
REMARK   34  A    between atoms: _73  and  _75
REMARK   35  A    between atoms: _75  and  _76
REMARK   36  A    between atoms: _75  and  _78
REMARK   37  A    between atoms: _78  and  _79
REMARK   38  A    between atoms: _82  and  _84
REMARK   39  A    between atoms: _84  and  _85
REMARK   40  A    between atoms: _84  and  _87
REMARK   41  A    between atoms: _87  and  _88
REMARK   42  A    between atoms: _91  and  _93
REMARK   43  A    between atoms: _93  and  _94
REMARK   44  A    between atoms: _97  and  _99
REMARK   45  A    between atoms: _99  and  _100
REMARK   46  A    between atoms: _99  and  _102
REMARK   47  A    between atoms: _102  and  _103
REMARK   48  A    between atoms: _103  and  _104
REMARK   49  A    between atoms: _104  and  _105
REMARK   50  A    between atoms: _114  and  _116
REMARK   51  A    between atoms: _116  and  _117
REMARK   52  A    between atoms: _116  and  _119
REMARK   53  A    between atoms: _119  and  _120
REMARK   54  A    between atoms: _120  and  _121
REMARK   55  A    between atoms: _121  and  _122
REMARK   56  A    between atoms: _131  and  _133
REMARK   57  A    between atoms: _133  and  _134
REMARK   58  A    between atoms: _133  and  _136
REMARK   59  A    between atoms: _136  and  _137
REMARK   60  A    between atoms: _137  and  _138
REMARK   61  A    between atoms: _142  and  _143
REMARK   62  A    between atoms: _148  and  _150
REMARK   63  A    between atoms: _150  and  _151
REMARK   64  A    between atoms: _153  and  _155
REMARK   65  A    between atoms: _155  and  _156
REMARK   66  A    between atoms: _155  and  _158
REMARK   67  A    between atoms: _158  and  _159
REMARK   68  A    between atoms: _159  and  _160
REMARK   69  A    between atoms: _160  and  _161
REMARK   70  A    between atoms: _170  and  _172
REMARK   71  A    between atoms: _172  and  _173
REMARK   72  A    between atoms: _172  and  _175
REMARK   73  A    between atoms: _175  and  _176
REMARK   74  A    between atoms: _179  and  _181
REMARK   75  A    between atoms: _181  and  _182
REMARK   76  A    between atoms: _181  and  _184
REMARK   77  A    between atoms: _184  and  _185
REMARK   78  A    between atoms: _188  and  _190
REMARK   79  A    between atoms: _190  and  _191
REMARK   80  A    between atoms: _190  and  _193
REMARK   81  A    between atoms: _193  and  _194
REMARK   82  A    between atoms: _194  and  _195
REMARK   83  A    between atoms: _198  and  _200
REMARK   84  A    between atoms: _200  and  _201
REMARK   85  A    between atoms: _200  and  _203
REMARK   86  A    between atoms: _206  and  _208
REMARK   87  A    between atoms: _208  and  _209
REMARK   88  A    between atoms: _208  and  _211
REMARK   89  A    between atoms: _211  and  _212
REMARK   90  A    between atoms: _212  and  _213
REMARK   91  A    between atoms: _215  and  _217
REMARK   92  A    between atoms: _217  and  _218
REMARK   93  A    between atoms: _217  and  _220
REMARK   94  A    between atoms: _220  and  _221
REMARK   95  A    between atoms: _227  and  _229
REMARK   96  A    between atoms: _229  and  _230
REMARK   97  A    between atoms: _229  and  _232
REMARK   98  A    between atoms: _232  and  _233
REMARK   99  A    between atoms: _238  and  _239
REMARK  100  A    between atoms: _241  and  _243
REMARK  101  A    between atoms: _243  and  _244
REMARK  102  A    between atoms: _247  and  _249
REMARK  103  A    between atoms: _249  and  _250
REMARK  104  A    between atoms: _249  and  _252
REMARK  105  A    between atoms: _252  and  _253
REMARK  106  A    between atoms: _253  and  _254
REMARK  107  A    between atoms: _254  and  _255
REMARK  108  A    between atoms: _264  and  _266
REMARK  109  A    between atoms: _266  and  _267
REMARK  110  A    between atoms: _266  and  _269
REMARK  111  A    between atoms: _269  and  _270
REMARK  112  A    between atoms: _273  and  _275
REMARK  113  A    between atoms: _275  and  _276
REMARK  114  A    between atoms: _275  and  _278
REMARK  115  A    between atoms: _278  and  _279
REMARK  116  A    between atoms: _279  and  _280
REMARK  117  A    between atoms: _280  and  _281
REMARK  118  A    between atoms: _290  and  _292
REMARK  119  A    between atoms: _292  and  _293
REMARK  120  A    between atoms: _292  and  _295
REMARK  121  A    between atoms: _295  and  _296
REMARK  122  A    between atoms: _301  and  _303
REMARK  123  A    between atoms: _303  and  _304
REMARK  124  A    between atoms: _303  and  _306
REMARK  125  A    between atoms: _306  and  _307
REMARK  126  A    between atoms: _310  and  _312
REMARK  127  A    between atoms: _312  and  _313
REMARK  128  A    between atoms: _312  and  _315
REMARK  129  A    between atoms: _315  and  _316
REMARK  130  A    between atoms: _319  and  _321
REMARK  131  A    between atoms: _321  and  _322
REMARK  132  A    between atoms: _321  and  _324
REMARK  133  A    between atoms: _324  and  _325
REMARK  134  A    between atoms: _327  and  _329
REMARK  135  A    between atoms: _329  and  _330
REMARK  136  A    between atoms: _329  and  _332
REMARK  137  A    between atoms: _332  and  _333
REMARK  138  A    between atoms: _336  and  _338
REMARK  139  A    between atoms: _338  and  _339
REMARK  140  A    between atoms: _338  and  _341
REMARK  141  A    between atoms: _341  and  _342
REMARK  142  A    between atoms: _342  and  _343
REMARK  143  A    between atoms: _348  and  _350
REMARK  144  A    between atoms: _350  and  _351
REMARK  145  A    between atoms: _354  and  _356
REMARK  146  A    between atoms: _356  and  _357
REMARK  147  A    between atoms: _356  and  _359
REMARK  148  A    between atoms: _359  and  _360
REMARK  149  A    between atoms: _365  and  _366
REMARK  150  A    between atoms: _368  and  _370
REMARK  151  A    between atoms: _370  and  _371
REMARK  152  A    between atoms: _370  and  _373
REMARK  153  A    between atoms: _373  and  _374
REMARK  154  A    between atoms: _374  and  _375
REMARK  155  A    between atoms: _380  and  _382
REMARK  156  A    between atoms: _382  and  _383
REMARK  157  A    between atoms: _385  and  _387
REMARK  158  A    between atoms: _387  and  _388
REMARK  159  A    between atoms: _390  and  _392
REMARK  160  A    between atoms: _392  and  _393
REMARK  161  A    between atoms: _392  and  _395
REMARK  162  A    between atoms: _395  and  _396
REMARK  163  A    between atoms: _396  and  _397
REMARK  164  A    between atoms: _397  and  _398
REMARK  165  A    between atoms: _407  and  _409
REMARK  166  A    between atoms: _409  and  _410
REMARK  167  A    between atoms: _409  and  _412
REMARK  168  A    between atoms: _412  and  _413
REMARK  169  A    between atoms: _416  and  _418
REMARK  170  A    between atoms: _418  and  _419
REMARK  171  A    between atoms: _418  and  _421
REMARK  172  A    between atoms: _424  and  _426
REMARK  173  A    between atoms: _426  and  _427
REMARK  174  A    between atoms: _426  and  _429
REMARK  175  A    between atoms: _432  and  _434
REMARK  176  A    between atoms: _434  and  _435
REMARK  177  A    between atoms: _437  and  _439
REMARK  178  A    between atoms: _439  and  _440
REMARK  179  A    between atoms: _439  and  _442
REMARK  180  A    between atoms: _442  and  _443
REMARK  181  A    between atoms: _446  and  _448
REMARK  182  A    between atoms: _448  and  _449
REMARK  183  A    between atoms: _448  and  _451
REMARK  184  A    between atoms: _451  and  _452
REMARK  185  A    between atoms: _452  and  _453
REMARK  186  A    between atoms: _453  and  _454
REMARK  187  A    between atoms: _454  and  _455
REMARK  188  A    between atoms: _459  and  _461
REMARK  189  A    between atoms: _461  and  _462
REMARK  190  A    between atoms: _461  and  _464
REMARK  191  A    between atoms: _464  and  _465
REMARK  192  A    between atoms: _465  and  _466
REMARK  193  A    between atoms: _466  and  _467
REMARK  194  A    between atoms: _476  and  _478
REMARK  195  A    between atoms: _478  and  _479
REMARK  196  A    between atoms: _482  and  _484
REMARK  197  A    between atoms: _484  and  _485
REMARK  198  A    between atoms: _484  and  _487
REMARK  199  A    between atoms: _487  and  _488
REMARK  200  A    between atoms: _488  and  _489
REMARK  201  A    between atoms: _489  and  _490
REMARK  202  A    between atoms: _499  and  _501
REMARK  203  A    between atoms: _501  and  _502
REMARK  204  A    between atoms: _505  and  _507
REMARK  205  A    between atoms: _507  and  _508
REMARK  206  A    between atoms: _507  and  _510
REMARK  207  A    between atoms: _510  and  _511
REMARK  208  A    between atoms: _511  and  _512
REMARK  209  A    between atoms: _512  and  _513
REMARK  210  A    between atoms: _522  and  _524
REMARK  211  A    between atoms: _524  and  _525
REMARK  212  A    between atoms: _527  and  _529
REMARK  213  A    between atoms: _529  and  _530
REMARK  214  A    between atoms: _529  and  _532
REMARK  215  A    between atoms: _532  and  _533
REMARK  216  A    between atoms: _533  and  _534
REMARK  217  A    between atoms: _537  and  _539
REMARK  218  A    between atoms: _539  and  _540
REMARK  219  A    between atoms: _539  and  _542
REMARK  220  A    between atoms: _542  and  _543
REMARK  221  A    between atoms: _546  and  _548
REMARK  222  A    between atoms: _548  and  _549
REMARK  223  A    between atoms: _548  and  _551
REMARK  224  A    between atoms: _551  and  _552
REMARK  225  A    between atoms: _552  and  _553
REMARK  226  A    between atoms: _553  and  _554
REMARK  227  A    between atoms: _563  and  _565
REMARK  228  A    between atoms: _565  and  _566
REMARK  229  A    between atoms: _565  and  _568
REMARK  230  A    between atoms: _568  and  _569
REMARK  231  A    between atoms: _572  and  _574
REMARK  232  A    between atoms: _574  and  _575
REMARK  233  A    between atoms: _574  and  _577
REMARK  234  A    between atoms: _577  and  _578
REMARK  235  A    between atoms: _578  and  _579
REMARK  236  A    between atoms: _582  and  _584
REMARK  237  A    between atoms: _584  and  _585
REMARK  238  A    between atoms: _584  and  _587
REMARK  239  A    between atoms: _587  and  _588
REMARK  240  A    between atoms: _588  and  _589
REMARK  241  A    between atoms: _594  and  _596
REMARK  242  A    between atoms: _596  and  _597
REMARK  243  A    between atoms: _596  and  _599
REMARK  244  A    between atoms: _599  and  _600
REMARK  245  A    between atoms: _600  and  _601
REMARK  246  A    between atoms: _604  and  _606
REMARK  247  A    between atoms: _606  and  _607
REMARK  248  A    between atoms: _606  and  _609
REMARK  249  A    between atoms: _609  and  _610
REMARK  250  A    between atoms: _616  and  _618
REMARK  251  A    between atoms: _618  and  _619
REMARK  252  A    between atoms: _618  and  _621
REMARK  253  A    between atoms: _621  and  _622
REMARK  254  A    between atoms: _628  and  _630
REMARK  255  A    between atoms: _630  and  _631
REMARK  256  A    between atoms: _630  and  _633
REMARK  257  A    between atoms: _633  and  _634
REMARK  258  A    between atoms: _637  and  _639
REMARK  259  A    between atoms: _639  and  _640
REMARK  260  A    between atoms: _639  and  _642
REMARK  261  A    between atoms: _642  and  _643
REMARK  262  A    between atoms: _648  and  _649
REMARK  263  A    between atoms: _651  and  _653
REMARK  264  A    between atoms: _653  and  _654
REMARK  265  A    between atoms: _657  and  _659
REMARK  266  A    between atoms: _659  and  _660
REMARK  267  A    between atoms: _659  and  _662
REMARK  268  A    between atoms: _662  and  _663
REMARK  269  A    between atoms: _663  and  _664
REMARK  270  A    between atoms: _670  and  _671
REMARK  271  A    between atoms: _676  and  _678
REMARK  272  A    between atoms: _678  and  _679
REMARK  273  A    between atoms: _678  and  _681
REMARK  274  A    between atoms: _681  and  _682
REMARK  275  A    between atoms: _685  and  _687
REMARK  276  A    between atoms: _687  and  _688
REMARK  277  A    between atoms: _687  and  _690
REMARK  278  A    between atoms: _690  and  _691
REMARK  279  A    between atoms: _691  and  _692
REMARK  280  A    between atoms: _695  and  _697
REMARK  281  A    between atoms: _697  and  _698
REMARK  282  A    between atoms: _697  and  _700
REMARK  283  A    between atoms: _703  and  _705
REMARK  284  A    between atoms: _705  and  _706
REMARK  285  A    between atoms: _705  and  _708
REMARK  286  A    between atoms: _708  and  _709
REMARK  287  A    between atoms: _709  and  _710
REMARK                            x       y       z     vdW  Elec       q    Type
REMARK                         _______ _______ _______ _____ _____    ______ ____
ROOT
ATOM      1  O   HOH     1      25.414  97.292  10.890  0.00  0.00    +0.000 OA
ENDROOT
TORSDOF 0
REMARK  Name = ../refined-set-2016/5tmp/5tmp_pocket.pdb
REMARK  287 active torsions:
REMARK  status: ('A' for Active; 'I' for Inactive)
REMARK    1  A    between atoms: _1  and  _3
REMARK    2  A    between atoms: _3  and  _4
REMARK    3  A    between atoms: _3  and  _6
REMARK    4  A    between atoms: _6  and  _7
REMARK    5  A    between atoms: _10  and  _12
REMARK    6  A    between atoms: _12  and  _13
REMARK    7  A    between atoms: _12  and  _15
REMARK    8  A    between atoms: _15  and  _16
REMARK    9  A    between atoms: _16  and  _17
REMARK   10  A    between atoms: _20  and  _22
REMARK   11  A    between atoms: _22  and  _23
REMARK   12  A    between atoms: _25  and  _27
REMARK   13  A    between atoms: _27  and  _28
REMARK   14  A    between atoms: _27  and  _30
REMARK   15  A    between atoms: _30  and  _31
REMARK   16  A    between atoms: _34  and  _36
REMARK   17  A    between atoms: _36  and  _37
REMARK   18  A    between atoms: _36  and  _39
REMARK   19  A    between atoms: _39  and  _40
REMARK   20  A    between atoms: _40  and  _41
REMARK   21  A    between atoms: _44  and  _46
REMARK   22  A    between atoms: _46  and  _47
REMARK   23  A    between atoms: _49  and  _51
REMARK   24  A    between atoms: _51  and  _52
REMARK   25  A    between atoms: _55  and  _57
REMARK   26  A    between atoms: _57  and  _58
REMARK   27  A    between atoms: _60  and  _62
REMARK   28  A    between atoms: _62  and  _63
REMARK   29  A    between atoms: _62  and  _65
REMARK   30  A    between atoms: _65  and  _66
REMARK   31  A    between atoms: _66  and  _67
REMARK   32  A    between atoms: _67  and  _68
REMARK   33  A    between atoms: _68  and  _69
REMARK   34  A    between atoms: _73  and  _75
REMARK   35  A    between atoms: _75  and  _76
REMARK   36  A    between atoms: _75  and  _78
REMARK   37  A    between atoms: _78  and  _79
REMARK   38  A    between atoms: _82  and  _84
REMARK   39  A    between atoms: _84  and  _85
REMARK   40  A    between atoms: _84  and  _87
REMARK   41  A    between atoms: _87  and  _88
REMARK   42  A    between atoms: _91  and  _93
REMARK   43  A    between atoms: _93  and  _94
REMARK   44  A    between atoms: _97  and  _99
REMARK   45  A    between atoms: _99  and  _100
REMARK   46  A    between atoms: _99  and  _102
REMARK   47  A    between atoms: _102  and  _103
REMARK   48  A    between atoms: _103  and  _104
REMARK   49  A    between atoms: _104  and  _105
REMARK   50  A    between atoms: _114  and  _116
REMARK   51  A    between atoms: _116  and  _117
REMARK   52  A    between atoms: _116  and  _119
REMARK   53  A    between atoms: _119  and  _120
REMARK   54  A    between atoms: _120  and  _121
REMARK   55  A    between atoms: _121  and  _122
REMARK   56  A    between atoms: _131  and  _133
REMARK   57  A    between atoms: _133  and  _134
REMARK   58  A    between atoms: _133  and  _136
REMARK   59  A    between atoms: _136  and  _137
REMARK   60  A    between atoms: _137  and  _138
REMARK   61  A    between atoms: _142  and  _143
REMARK   62  A    between atoms: _148  and  _150
REMARK   63  A    between atoms: _150  and  _151
REMARK   64  A    between atoms: _153  and  _155
REMARK   65  A    between atoms: _155  and  _156
REMARK   66  A    between atoms: _155  and  _158
REMARK   67  A    between atoms: _158  and  _159
REMARK   68  A    between atoms: _159  and  _160
REMARK   69  A    between atoms: _160  and  _161
REMARK   70  A    between atoms: _170  and  _172
REMARK   71  A    between atoms: _172  and  _173
REMARK   72  A    between atoms: _172  and  _175
REMARK   73  A    between atoms: _175  and  _176
REMARK   74  A    between atoms: _179  and  _181
REMARK   75  A    between atoms: _181  and  _182
REMARK   76  A    between atoms: _181  and  _184
REMARK   77  A    between atoms: _184  and  _185
REMARK   78  A    between atoms: _188  and  _190
REMARK   79  A    between atoms: _190  and  _191
REMARK   80  A    between atoms: _190  and  _193
REMARK   81  A    between atoms: _193  and  _194
REMARK   82  A    between atoms: _194  and  _195
REMARK   83  A    between atoms: _198  and  _200
REMARK   84  A    between atoms: _200  and  _201
REMARK   85  A    between atoms: _200  and  _203
REMARK   86  A    between atoms: _206  and  _208
REMARK   87  A    between atoms: _208  and  _209
REMARK   88  A    between atoms: _208  and  _211
REMARK   89  A    between atoms: _211  and  _212
REMARK   90  A    between atoms: _212  and  _213
REMARK   91  A    between atoms: _215  and  _217
REMARK   92  A    between atoms: _217  and  _218
REMARK   93  A    between atoms: _217  and  _220
REMARK   94  A    between atoms: _220  and  _221
REMARK   95  A    between atoms: _227  and  _229
REMARK   96  A    between atoms: _229  and  _230
REMARK   97  A    between atoms: _229  and  _232
REMARK   98  A    between atoms: _232  and  _233
REMARK   99  A    between atoms: _238  and  _239
REMARK  100  A    between atoms: _241  and  _243
REMARK  101  A    between atoms: _243  and  _244
REMARK  102  A    between atoms: _247  and  _249
REMARK  103  A    between atoms: _249  and  _250
REMARK  104  A    between atoms: _249  and  _252
REMARK  105  A    between atoms: _252  and  _253
REMARK  106  A    between atoms: _253  and  _254
REMARK  107  A    between atoms: _254  and  _255
REMARK  108  A    between atoms: _264  and  _266
REMARK  109  A    between atoms: _266  and  _267
REMARK  110  A    between atoms: _266  and  _269
REMARK  111  A    between atoms: _269  and  _270
REMARK  112  A    between atoms: _273  and  _275
REMARK  113  A    between atoms: _275  and  _276
REMARK  114  A    between atoms: _275  and  _278
REMARK  115  A    between atoms: _278  and  _279
REMARK  116  A    between atoms: _279  and  _280
REMARK  117  A    between atoms: _280  and  _281
REMARK  118  A    between atoms: _290  and  _292
REMARK  119  A    between atoms: _292  and  _293
REMARK  120  A    between atoms: _292  and  _295
REMARK  121  A    between atoms: _295  and  _296
REMARK  122  A    between atoms: _301  and  _303
REMARK  123  A    between atoms: _303  and  _304
REMARK  124  A    between atoms: _303  and  _306
REMARK  125  A    between atoms: _306  and  _307
REMARK  126  A    between atoms: _310  and  _312
REMARK  127  A    between atoms: _312  and  _313
REMARK  128  A    between atoms: _312  and  _315
REMARK  129  A    between atoms: _315  and  _316
REMARK  130  A    between atoms: _319  and  _321
REMARK  131  A    between atoms: _321  and  _322
REMARK  132  A    between atoms: _321  and  _324
REMARK  133  A    between atoms: _324  and  _325
REMARK  134  A    between atoms: _327  and  _329
REMARK  135  A    between atoms: _329  and  _330
REMARK  136  A    between atoms: _329  and  _332
REMARK  137  A    between atoms: _332  and  _333
REMARK  138  A    between atoms: _336  and  _338
REMARK  139  A    between atoms: _338  and  _339
REMARK  140  A    between atoms: _338  and  _341
REMARK  141  A    between atoms: _341  and  _342
REMARK  142  A    between atoms: _342  and  _343
REMARK  143  A    between atoms: _348  and  _350
REMARK  144  A    between atoms: _350  and  _351
REMARK  145  A    between atoms: _354  and  _356
REMARK  146  A    between atoms: _356  and  _357
REMARK  147  A    between atoms: _356  and  _359
REMARK  148  A    between atoms: _359  and  _360
REMARK  149  A    between atoms: _365  and  _366
REMARK  150  A    between atoms: _368  and  _370
REMARK  151  A    between atoms: _370  and  _371
REMARK  152  A    between atoms: _370  and  _373
REMARK  153  A    between atoms: _373  and  _374
REMARK  154  A    between atoms: _374  and  _375
REMARK  155  A    between atoms: _380  and  _382
REMARK  156  A    between atoms: _382  and  _383
REMARK  157  A    between atoms: _385  and  _387
REMARK  158  A    between atoms: _387  and  _388
REMARK  159  A    between atoms: _390  and  _392
REMARK  160  A    between atoms: _392  and  _393
REMARK  161  A    between atoms: _392  and  _395
REMARK  162  A    between atoms: _395  and  _396
REMARK  163  A    between atoms: _396  and  _397
REMARK  164  A    between atoms: _397  and  _398
REMARK  165  A    between atoms: _407  and  _409
REMARK  166  A    between atoms: _409  and  _410
REMARK  167  A    between atoms: _409  and  _412
REMARK  168  A    between atoms: _412  and  _413
REMARK  169  A    between atoms: _416  and  _418
REMARK  170  A    between atoms: _418  and  _419
REMARK  171  A    between atoms: _418  and  _421
REMARK  172  A    between atoms: _424  and  _426
REMARK  173  A    between atoms: _426  and  _427
REMARK  174  A    between atoms: _426  and  _429
REMARK  175  A    between atoms: _432  and  _434
REMARK  176  A    between atoms: _434  and  _435
REMARK  177  A    between atoms: _437  and  _439
REMARK  178  A    between atoms: _439  and  _440
REMARK  179  A    between atoms: _439  and  _442
REMARK  180  A    between atoms: _442  and  _443
REMARK  181  A    between atoms: _446  and  _448
REMARK  182  A    between atoms: _448  and  _449
REMARK  183  A    between atoms: _448  and  _451
REMARK  184  A    between atoms: _451  and  _452
REMARK  185  A    between atoms: _452  and  _453
REMARK  186  A    between atoms: _453  and  _454
REMARK  187  A    between atoms: _454  and  _455
REMARK  188  A    between atoms: _459  and  _461
REMARK  189  A    between atoms: _461  and  _462
REMARK  190  A    between atoms: _461  and  _464
REMARK  191  A    between atoms: _464  and  _465
REMARK  192  A    between atoms: _465  and  _466
REMARK  193  A    between atoms: _466  and  _467
REMARK  194  A    between atoms: _476  and  _478
REMARK  195  A    between atoms: _478  and  _479
REMARK  196  A    between atoms: _482  and  _484
REMARK  197  A    between atoms: _484  and  _485
REMARK  198  A    between atoms: _484  and  _487
REMARK  199  A    between atoms: _487  and  _488
REMARK  200  A    between atoms: _488  and  _489
REMARK  201  A    between atoms: _489  and  _490
REMARK  202  A    between atoms: _499  and  _501
REMARK  203  A    between atoms: _501  and  _502
REMARK  204  A    between atoms: _505  and  _507
REMARK  205  A    between atoms: _507  and  _508
REMARK  206  A    between atoms: _507  and  _510
REMARK  207  A    between atoms: _510  and  _511
REMARK  208  A    between atoms: _511  and  _512
REMARK  209  A    between atoms: _512  and  _513
REMARK  210  A    between atoms: _522  and  _524
REMARK  211  A    between atoms: _524  and  _525
REMARK  212  A    between atoms: _527  and  _529
REMARK  213  A    between atoms: _529  and  _530
REMARK  214  A    between atoms: _529  and  _532
REMARK  215  A    between atoms: _532  and  _533
REMARK  216  A    between atoms: _533  and  _534
REMARK  217  A    between atoms: _537  and  _539
REMARK  218  A    between atoms: _539  and  _540
REMARK  219  A    between atoms: _539  and  _542
REMARK  220  A    between atoms: _542  and  _543
REMARK  221  A    between atoms: _546  and  _548
REMARK  222  A    between atoms: _548  and  _549
REMARK  223  A    between atoms: _548  and  _551
REMARK  224  A    between atoms: _551  and  _552
REMARK  225  A    between atoms: _552  and  _553
REMARK  226  A    between atoms: _553  and  _554
REMARK  227  A    between atoms: _563  and  _565
REMARK  228  A    between atoms: _565  and  _566
REMARK  229  A    between atoms: _565  and  _568
REMARK  230  A    between atoms: _568  and  _569
REMARK  231  A    between atoms: _572  and  _574
REMARK  232  A    between atoms: _574  and  _575
REMARK  233  A    between atoms: _574  and  _577
REMARK  234  A    between atoms: _577  and  _578
REMARK  235  A    between atoms: _578  and  _579
REMARK  236  A    between atoms: _582  and  _584
REMARK  237  A    between atoms: _584  and  _585
REMARK  238  A    between atoms: _584  and  _587
REMARK  239  A    between atoms: _587  and  _588
REMARK  240  A    between atoms: _588  and  _589
REMARK  241  A    between atoms: _594  and  _596
REMARK  242  A    between atoms: _596  and  _597
REMARK  243  A    between atoms: _596  and  _599
REMARK  244  A    between atoms: _599  and  _600
REMARK  245  A    between atoms: _600  and  _601
REMARK  246  A    between atoms: _604  and  _606
REMARK  247  A    between atoms: _606  and  _607
REMARK  248  A    between atoms: _606  and  _609
REMARK  249  A    between atoms: _609  and  _610
REMARK  250  A    between atoms: _616  and  _618
REMARK  251  A    between atoms: _618  and  _619
REMARK  252  A    between atoms: _618  and  _621
REMARK  253  A    between atoms: _621  and  _622
REMARK  254  A    between atoms: _628  and  _630
REMARK  255  A    between atoms: _630  and  _631
REMARK  256  A    between atoms: _630  and  _633
REMARK  257  A    between atoms: _633  and  _634
REMARK  258  A    between atoms: _637  and  _639
REMARK  259  A    between atoms: _639  and  _640
REMARK  260  A    between atoms: _639  and  _642
REMARK  261  A    between atoms: _642  and  _643
REMARK  262  A    between atoms: _648  and  _649
REMARK  263  A    between atoms: _651  and  _653
REMARK  264  A    between atoms: _653  and  _654
REMARK  265  A    between atoms: _657  and  _659
REMARK  266  A    between atoms: _659  and  _660
REMARK  267  A    between atoms: _659  and  _662
REMARK  268  A    between atoms: _662  and  _663
REMARK  269  A    between atoms: _663  and  _664
REMARK  270  A    between atoms: _670  and  _671
REMARK  271  A    between atoms: _676  and  _678
REMARK  272  A    between atoms: _678  and  _679
REMARK  273  A    between atoms: _678  and  _681
REMARK  274  A    between atoms: _681  and  _682
REMARK  275  A    between atoms: _685  and  _687
REMARK  276  A    between atoms: _687  and  _688
REMARK  277  A    between atoms: _687  and  _690
REMARK  278  A    between atoms: _690  and  _691
REMARK  279  A    between atoms: _691  and  _692
REMARK  280  A    between atoms: _695  and  _697
REMARK  281  A    between atoms: _697  and  _698
REMARK  282  A    between atoms: _697  and  _700
REMARK  283  A    between atoms: _703  and  _705
REMARK  284  A    between atoms: _705  and  _706
REMARK  285  A    between atoms: _705  and  _708
REMARK  286  A    between atoms: _708  and  _709
REMARK  287  A    between atoms: _709  and  _710
REMARK                            x       y       z     vdW  Elec       q    Type
REMARK                         _______ _______ _______ _____ _____    ______ ____
ROOT
ATOM      1  O   HOH     1      26.308 103.305   6.763  0.00  0.00    +0.000 OA
ENDROOT
TORSDOF 0
REMARK  Name = ../refined-set-2016/5tmp/5tmp_pocket.pdb
REMARK  287 active torsions:
REMARK  status: ('A' for Active; 'I' for Inactive)
REMARK    1  A    between atoms: _1  and  _3
REMARK    2  A    between atoms: _3  and  _4
REMARK    3  A    between atoms: _3  and  _6
REMARK    4  A    between atoms: _6  and  _7
REMARK    5  A    between atoms: _10  and  _12
REMARK    6  A    between atoms: _12  and  _13
REMARK    7  A    between atoms: _12  and  _15
REMARK    8  A    between atoms: _15  and  _16
REMARK    9  A    between atoms: _16  and  _17
REMARK   10  A    between atoms: _20  and  _22
REMARK   11  A    between atoms: _22  and  _23
REMARK   12  A    between atoms: _25  and  _27
REMARK   13  A    between atoms: _27  and  _28
REMARK   14  A    between atoms: _27  and  _30
REMARK   15  A    between atoms: _30  and  _31
REMARK   16  A    between atoms: _34  and  _36
REMARK   17  A    between atoms: _36  and  _37
REMARK   18  A    between atoms: _36  and  _39
REMARK   19  A    between atoms: _39  and  _40
REMARK   20  A    between atoms: _40  and  _41
REMARK   21  A    between atoms: _44  and  _46
REMARK   22  A    between atoms: _46  and  _47
REMARK   23  A    between atoms: _49  and  _51
REMARK   24  A    between atoms: _51  and  _52
REMARK   25  A    between atoms: _55  and  _57
REMARK   26  A    between atoms: _57  and  _58
REMARK   27  A    between atoms: _60  and  _62
REMARK   28  A    between atoms: _62  and  _63
REMARK   29  A    between atoms: _62  and  _65
REMARK   30  A    between atoms: _65  and  _66
REMARK   31  A    between atoms: _66  and  _67
REMARK   32  A    between atoms: _67  and  _68
REMARK   33  A    between atoms: _68  and  _69
REMARK   34  A    between atoms: _73  and  _75
REMARK   35  A    between atoms: _75  and  _76
REMARK   36  A    between atoms: _75  and  _78
REMARK   37  A    between atoms: _78  and  _79
REMARK   38  A    between atoms: _82  and  _84
REMARK   39  A    between atoms: _84  and  _85
REMARK   40  A    between atoms: _84  and  _87
REMARK   41  A    between atoms: _87  and  _88
REMARK   42  A    between atoms: _91  and  _93
REMARK   43  A    between atoms: _93  and  _94
REMARK   44  A    between atoms: _97  and  _99
REMARK   45  A    between atoms: _99  and  _100
REMARK   46  A    between atoms: _99  and  _102
REMARK   47  A    between atoms: _102  and  _103
REMARK   48  A    between atoms: _103  and  _104
REMARK   49  A    between atoms: _104  and  _105
REMARK   50  A    between atoms: _114  and  _116
REMARK   51  A    between atoms: _116  and  _117
REMARK   52  A    between atoms: _116  and  _119
REMARK   53  A    between atoms: _119  and  _120
REMARK   54  A    between atoms: _120  and  _121
REMARK   55  A    between atoms: _121  and  _122
REMARK   56  A    between atoms: _131  and  _133
REMARK   57  A    between atoms: _133  and  _134
REMARK   58  A    between atoms: _133  and  _136
REMARK   59  A    between atoms: _136  and  _137
REMARK   60  A    between atoms: _137  and  _138
REMARK   61  A    between atoms: _142  and  _143
REMARK   62  A    between atoms: _148  and  _150
REMARK   63  A    between atoms: _150  and  _151
REMARK   64  A    between atoms: _153  and  _155
REMARK   65  A    between atoms: _155  and  _156
REMARK   66  A    between atoms: _155  and  _158
REMARK   67  A    between atoms: _158  and  _159
REMARK   68  A    between atoms: _159  and  _160
REMARK   69  A    between atoms: _160  and  _161
REMARK   70  A    between atoms: _170  and  _172
REMARK   71  A    between atoms: _172  and  _173
REMARK   72  A    between atoms: _172  and  _175
REMARK   73  A    between atoms: _175  and  _176
REMARK   74  A    between atoms: _179  and  _181
REMARK   75  A    between atoms: _181  and  _182
REMARK   76  A    between atoms: _181  and  _184
REMARK   77  A    between atoms: _184  and  _185
REMARK   78  A    between atoms: _188  and  _190
REMARK   79  A    between atoms: _190  and  _191
REMARK   80  A    between atoms: _190  and  _193
REMARK   81  A    between atoms: _193  and  _194
REMARK   82  A    between atoms: _194  and  _195
REMARK   83  A    between atoms: _198  and  _200
REMARK   84  A    between atoms: _200  and  _201
REMARK   85  A    between atoms: _200  and  _203
REMARK   86  A    between atoms: _206  and  _208
REMARK   87  A    between atoms: _208  and  _209
REMARK   88  A    between atoms: _208  and  _211
REMARK   89  A    between atoms: _211  and  _212
REMARK   90  A    between atoms: _212  and  _213
REMARK   91  A    between atoms: _215  and  _217
REMARK   92  A    between atoms: _217  and  _218
REMARK   93  A    between atoms: _217  and  _220
REMARK   94  A    between atoms: _220  and  _221
REMARK   95  A    between atoms: _227  and  _229
REMARK   96  A    between atoms: _229  and  _230
REMARK   97  A    between atoms: _229  and  _232
REMARK   98  A    between atoms: _232  and  _233
REMARK   99  A    between atoms: _238  and  _239
REMARK  100  A    between atoms: _241  and  _243
REMARK  101  A    between atoms: _243  and  _244
REMARK  102  A    between atoms: _247  and  _249
REMARK  103  A    between atoms: _249  and  _250
REMARK  104  A    between atoms: _249  and  _252
REMARK  105  A    between atoms: _252  and  _253
REMARK  106  A    between atoms: _253  and  _254
REMARK  107  A    between atoms: _254  and  _255
REMARK  108  A    between atoms: _264  and  _266
REMARK  109  A    between atoms: _266  and  _267
REMARK  110  A    between atoms: _266  and  _269
REMARK  111  A    between atoms: _269  and  _270
REMARK  112  A    between atoms: _273  and  _275
REMARK  113  A    between atoms: _275  and  _276
REMARK  114  A    between atoms: _275  and  _278
REMARK  115  A    between atoms: _278  and  _279
REMARK  116  A    between atoms: _279  and  _280
REMARK  117  A    between atoms: _280  and  _281
REMARK  118  A    between atoms: _290  and  _292
REMARK  119  A    between atoms: _292  and  _293
REMARK  120  A    between atoms: _292  and  _295
REMARK  121  A    between atoms: _295  and  _296
REMARK  122  A    between atoms: _301  and  _303
REMARK  123  A    between atoms: _303  and  _304
REMARK  124  A    between atoms: _303  and  _306
REMARK  125  A    between atoms: _306  and  _307
REMARK  126  A    between atoms: _310  and  _312
REMARK  127  A    between atoms: _312  and  _313
REMARK  128  A    between atoms: _312  and  _315
REMARK  129  A    between atoms: _315  and  _316
REMARK  130  A    between atoms: _319  and  _321
REMARK  131  A    between atoms: _321  and  _322
REMARK  132  A    between atoms: _321  and  _324
REMARK  133  A    between atoms: _324  and  _325
REMARK  134  A    between atoms: _327  and  _329
REMARK  135  A    between atoms: _329  and  _330
REMARK  136  A    between atoms: _329  and  _332
REMARK  137  A    between atoms: _332  and  _333
REMARK  138  A    between atoms: _336  and  _338
REMARK  139  A    between atoms: _338  and  _339
REMARK  140  A    between atoms: _338  and  _341
REMARK  141  A    between atoms: _341  and  _342
REMARK  142  A    between atoms: _342  and  _343
REMARK  143  A    between atoms: _348  and  _350
REMARK  144  A    between atoms: _350  and  _351
REMARK  145  A    between atoms: _354  and  _356
REMARK  146  A    between atoms: _356  and  _357
REMARK  147  A    between atoms: _356  and  _359
REMARK  148  A    between atoms: _359  and  _360
REMARK  149  A    between atoms: _365  and  _366
REMARK  150  A    between atoms: _368  and  _370
REMARK  151  A    between atoms: _370  and  _371
REMARK  152  A    between atoms: _370  and  _373
REMARK  153  A    between atoms: _373  and  _374
REMARK  154  A    between atoms: _374  and  _375
REMARK  155  A    between atoms: _380  and  _382
REMARK  156  A    between atoms: _382  and  _383
REMARK  157  A    between atoms: _385  and  _387
REMARK  158  A    between atoms: _387  and  _388
REMARK  159  A    between atoms: _390  and  _392
REMARK  160  A    between atoms: _392  and  _393
REMARK  161  A    between atoms: _392  and  _395
REMARK  162  A    between atoms: _395  and  _396
REMARK  163  A    between atoms: _396  and  _397
REMARK  164  A    between atoms: _397  and  _398
REMARK  165  A    between atoms: _407  and  _409
REMARK  166  A    between atoms: _409  and  _410
REMARK  167  A    between atoms: _409  and  _412
REMARK  168  A    between atoms: _412  and  _413
REMARK  169  A    between atoms: _416  and  _418
REMARK  170  A    between atoms: _418  and  _419
REMARK  171  A    between atoms: _418  and  _421
REMARK  172  A    between atoms: _424  and  _426
REMARK  173  A    between atoms: _426  and  _427
REMARK  174  A    between atoms: _426  and  _429
REMARK  175  A    between atoms: _432  and  _434
REMARK  176  A    between atoms: _434  and  _435
REMARK  177  A    between atoms: _437  and  _439
REMARK  178  A    between atoms: _439  and  _440
REMARK  179  A    between atoms: _439  and  _442
REMARK  180  A    between atoms: _442  and  _443
REMARK  181  A    between atoms: _446  and  _448
REMARK  182  A    between atoms: _448  and  _449
REMARK  183  A    between atoms: _448  and  _451
REMARK  184  A    between atoms: _451  and  _452
REMARK  185  A    between atoms: _452  and  _453
REMARK  186  A    between atoms: _453  and  _454
REMARK  187  A    between atoms: _454  and  _455
REMARK  188  A    between atoms: _459  and  _461
REMARK  189  A    between atoms: _461  and  _462
REMARK  190  A    between atoms: _461  and  _464
REMARK  191  A    between atoms: _464  and  _465
REMARK  192  A    between atoms: _465  and  _466
REMARK  193  A    between atoms: _466  and  _467
REMARK  194  A    between atoms: _476  and  _478
REMARK  195  A    between atoms: _478  and  _479
REMARK  196  A    between atoms: _482  and  _484
REMARK  197  A    between atoms: _484  and  _485
REMARK  198  A    between atoms: _484  and  _487
REMARK  199  A    between atoms: _487  and  _488
REMARK  200  A    between atoms: _488  and  _489
REMARK  201  A    between atoms: _489  and  _490
REMARK  202  A    between atoms: _499  and  _501
REMARK  203  A    between atoms: _501  and  _502
REMARK  204  A    between atoms: _505  and  _507
REMARK  205  A    between atoms: _507  and  _508
REMARK  206  A    between atoms: _507  and  _510
REMARK  207  A    between atoms: _510  and  _511
REMARK  208  A    between atoms: _511  and  _512
REMARK  209  A    between atoms: _512  and  _513
REMARK  210  A    between atoms: _522  and  _524
REMARK  211  A    between atoms: _524  and  _525
REMARK  212  A    between atoms: _527  and  _529
REMARK  213  A    between atoms: _529  and  _530
REMARK  214  A    between atoms: _529  and  _532
REMARK  215  A    between atoms: _532  and  _533
REMARK  216  A    between atoms: _533  and  _534
REMARK  217  A    between atoms: _537  and  _539
REMARK  218  A    between atoms: _539  and  _540
REMARK  219  A    between atoms: _539  and  _542
REMARK  220  A    between atoms: _542  and  _543
REMARK  221  A    between atoms: _546  and  _548
REMARK  222  A    between atoms: _548  and  _549
REMARK  223  A    between atoms: _548  and  _551
REMARK  224  A    between atoms: _551  and  _552
REMARK  225  A    between atoms: _552  and  _553
REMARK  226  A    between atoms: _553  and  _554
REMARK  227  A    between atoms: _563  and  _565
REMARK  228  A    between atoms: _565  and  _566
REMARK  229  A    between atoms: _565  and  _568
REMARK  230  A    between atoms: _568  and  _569
REMARK  231  A    between atoms: _572  and  _574
REMARK  232  A    between atoms: _574  and  _575
REMARK  233  A    between atoms: _574  and  _577
REMARK  234  A    between atoms: _577  and  _578
REMARK  235  A    between atoms: _578  and  _579
REMARK  236  A    between atoms: _582  and  _584
REMARK  237  A    between atoms: _584  and  _585
REMARK  238  A    between atoms: _584  and  _587
REMARK  239  A    between atoms: _587  and  _588
REMARK  240  A    between atoms: _588  and  _589
REMARK  241  A    between atoms: _594  and  _596
REMARK  242  A    between atoms: _596  and  _597
REMARK  243  A    between atoms: _596  and  _599
REMARK  244  A    between atoms: _599  and  _600
REMARK  245  A    between atoms: _600  and  _601
REMARK  246  A    between atoms: _604  and  _606
REMARK  247  A    between atoms: _606  and  _607
REMARK  248  A    between atoms: _606  and  _609
REMARK  249  A    between atoms: _609  and  _610
REMARK  250  A    between atoms: _616  and  _618
REMARK  251  A    between atoms: _618  and  _619
REMARK  252  A    between atoms: _618  and  _621
REMARK  253  A    between atoms: _621  and  _622
REMARK  254  A    between atoms: _628  and  _630
REMARK  255  A    between atoms: _630  and  _631
REMARK  256  A    between atoms: _630  and  _633
REMARK  257  A    between atoms: _633  and  _634
REMARK  258  A    between atoms: _637  and  _639
REMARK  259  A    between atoms: _639  and  _640
REMARK  260  A    between atoms: _639  and  _642
REMARK  261  A    between atoms: _642  and  _643
REMARK  262  A    between atoms: _648  and  _649
REMARK  263  A    between atoms: _651  and  _653
REMARK  264  A    between atoms: _653  and  _654
REMARK  265  A    between atoms: _657  and  _659
REMARK  266  A    between atoms: _659  and  _660
REMARK  267  A    between atoms: _659  and  _662
REMARK  268  A    between atoms: _662  and  _663
REMARK  269  A    between atoms: _663  and  _664
REMARK  270  A    between atoms: _670  and  _671
REMARK  271  A    between atoms: _676  and  _678
REMARK  272  A    between atoms: _678  and  _679
REMARK  273  A    between atoms: _678  and  _681
REMARK  274  A    between atoms: _681  and  _682
REMARK  275  A    between atoms: _685  and  _687
REMARK  276  A    between atoms: _687  and  _688
REMARK  277  A    between atoms: _687  and  _690
REMARK  278  A    between atoms: _690  and  _691
REMARK  279  A    between atoms: _691  and  _692
REMARK  280  A    between atoms: _695  and  _697
REMARK  281  A    between atoms: _697  and  _698
REMARK  282  A    between atoms: _697  and  _700
REMARK  283  A    between atoms: _703  and  _705
REMARK  284  A    between atoms: _705  and  _706
REMARK  285  A    between atoms: _705  and  _708
REMARK  286  A    between atoms: _708  and  _709
REMARK  287  A    between atoms: _709  and  _710
REMARK                            x       y       z     vdW  Elec       q    Type
REMARK                         _______ _______ _______ _____ _____    ______ ____
ROOT
ATOM      1  O   HOH     1      31.817 104.635  11.563  0.00  0.00    +0.000 OA
ENDROOT
TORSDOF 0
REMARK  Name = ../refined-set-2016/5tmp/5tmp_pocket.pdb
REMARK  287 active torsions:
REMARK  status: ('A' for Active; 'I' for Inactive)
REMARK    1  A    between atoms: _1  and  _3
REMARK    2  A    between atoms: _3  and  _4
REMARK    3  A    between atoms: _3  and  _6
REMARK    4  A    between atoms: _6  and  _7
REMARK    5  A    between atoms: _10  and  _12
REMARK    6  A    between atoms: _12  and  _13
REMARK    7  A    between atoms: _12  and  _15
REMARK    8  A    between atoms: _15  and  _16
REMARK    9  A    between atoms: _16  and  _17
REMARK   10  A    between atoms: _20  and  _22
REMARK   11  A    between atoms: _22  and  _23
REMARK   12  A    between atoms: _25  and  _27
REMARK   13  A    between atoms: _27  and  _28
REMARK   14  A    between atoms: _27  and  _30
REMARK   15  A    between atoms: _30  and  _31
REMARK   16  A    between atoms: _34  and  _36
REMARK   17  A    between atoms: _36  and  _37
REMARK   18  A    between atoms: _36  and  _39
REMARK   19  A    between atoms: _39  and  _40
REMARK   20  A    between atoms: _40  and  _41
REMARK   21  A    between atoms: _44  and  _46
REMARK   22  A    between atoms: _46  and  _47
REMARK   23  A    between atoms: _49  and  _51
REMARK   24  A    between atoms: _51  and  _52
REMARK   25  A    between atoms: _55  and  _57
REMARK   26  A    between atoms: _57  and  _58
REMARK   27  A    between atoms: _60  and  _62
REMARK   28  A    between atoms: _62  and  _63
REMARK   29  A    between atoms: _62  and  _65
REMARK   30  A    between atoms: _65  and  _66
REMARK   31  A    between atoms: _66  and  _67
REMARK   32  A    between atoms: _67  and  _68
REMARK   33  A    between atoms: _68  and  _69
REMARK   34  A    between atoms: _73  and  _75
REMARK   35  A    between atoms: _75  and  _76
REMARK   36  A    between atoms: _75  and  _78
REMARK   37  A    between atoms: _78  and  _79
REMARK   38  A    between atoms: _82  and  _84
REMARK   39  A    between atoms: _84  and  _85
REMARK   40  A    between atoms: _84  and  _87
REMARK   41  A    between atoms: _87  and  _88
REMARK   42  A    between atoms: _91  and  _93
REMARK   43  A    between atoms: _93  and  _94
REMARK   44  A    between atoms: _97  and  _99
REMARK   45  A    between atoms: _99  and  _100
REMARK   46  A    between atoms: _99  and  _102
REMARK   47  A    between atoms: _102  and  _103
REMARK   48  A    between atoms: _103  and  _104
REMARK   49  A    between atoms: _104  and  _105
REMARK   50  A    between atoms: _114  and  _116
REMARK   51  A    between atoms: _116  and  _117
REMARK   52  A    between atoms: _116  and  _119
REMARK   53  A    between atoms: _119  and  _120
REMARK   54  A    between atoms: _120  and  _121
REMARK   55  A    between atoms: _121  and  _122
REMARK   56  A    between atoms: _131  and  _133
REMARK   57  A    between atoms: _133  and  _134
REMARK   58  A    between atoms: _133  and  _136
REMARK   59  A    between atoms: _136  and  _137
REMARK   60  A    between atoms: _137  and  _138
REMARK   61  A    between atoms: _142  and  _143
REMARK   62  A    between atoms: _148  and  _150
REMARK   63  A    between atoms: _150  and  _151
REMARK   64  A    between atoms: _153  and  _155
REMARK   65  A    between atoms: _155  and  _156
REMARK   66  A    between atoms: _155  and  _158
REMARK   67  A    between atoms: _158  and  _159
REMARK   68  A    between atoms: _159  and  _160
REMARK   69  A    between atoms: _160  and  _161
REMARK   70  A    between atoms: _170  and  _172
REMARK   71  A    between atoms: _172  and  _173
REMARK   72  A    between atoms: _172  and  _175
REMARK   73  A    between atoms: _175  and  _176
REMARK   74  A    between atoms: _179  and  _181
REMARK   75  A    between atoms: _181  and  _182
REMARK   76  A    between atoms: _181  and  _184
REMARK   77  A    between atoms: _184  and  _185
REMARK   78  A    between atoms: _188  and  _190
REMARK   79  A    between atoms: _190  and  _191
REMARK   80  A    between atoms: _190  and  _193
REMARK   81  A    between atoms: _193  and  _194
REMARK   82  A    between atoms: _194  and  _195
REMARK   83  A    between atoms: _198  and  _200
REMARK   84  A    between atoms: _200  and  _201
REMARK   85  A    between atoms: _200  and  _203
REMARK   86  A    between atoms: _206  and  _208
REMARK   87  A    between atoms: _208  and  _209
REMARK   88  A    between atoms: _208  and  _211
REMARK   89  A    between atoms: _211  and  _212
REMARK   90  A    between atoms: _212  and  _213
REMARK   91  A    between atoms: _215  and  _217
REMARK   92  A    between atoms: _217  and  _218
REMARK   93  A    between atoms: _217  and  _220
REMARK   94  A    between atoms: _220  and  _221
REMARK   95  A    between atoms: _227  and  _229
REMARK   96  A    between atoms: _229  and  _230
REMARK   97  A    between atoms: _229  and  _232
REMARK   98  A    between atoms: _232  and  _233
REMARK   99  A    between atoms: _238  and  _239
REMARK  100  A    between atoms: _241  and  _243
REMARK  101  A    between atoms: _243  and  _244
REMARK  102  A    between atoms: _247  and  _249
REMARK  103  A    between atoms: _249  and  _250
REMARK  104  A    between atoms: _249  and  _252
REMARK  105  A    between atoms: _252  and  _253
REMARK  106  A    between atoms: _253  and  _254
REMARK  107  A    between atoms: _254  and  _255
REMARK  108  A    between atoms: _264  and  _266
REMARK  109  A    between atoms: _266  and  _267
REMARK  110  A    between atoms: _266  and  _269
REMARK  111  A    between atoms: _269  and  _270
REMARK  112  A    between atoms: _273  and  _275
REMARK  113  A    between atoms: _275  and  _276
REMARK  114  A    between atoms: _275  and  _278
REMARK  115  A    between atoms: _278  and  _279
REMARK  116  A    between atoms: _279  and  _280
REMARK  117  A    between atoms: _280  and  _281
REMARK  118  A    between atoms: _290  and  _292
REMARK  119  A    between atoms: _292  and  _293
REMARK  120  A    between atoms: _292  and  _295
REMARK  121  A    between atoms: _295  and  _296
REMARK  122  A    between atoms: _301  and  _303
REMARK  123  A    between atoms: _303  and  _304
REMARK  124  A    between atoms: _303  and  _306
REMARK  125  A    between atoms: _306  and  _307
REMARK  126  A    between atoms: _310  and  _312
REMARK  127  A    between atoms: _312  and  _313
REMARK  128  A    between atoms: _312  and  _315
REMARK  129  A    between atoms: _315  and  _316
REMARK  130  A    between atoms: _319  and  _321
REMARK  131  A    between atoms: _321  and  _322
REMARK  132  A    between atoms: _321  and  _324
REMARK  133  A    between atoms: _324  and  _325
REMARK  134  A    between atoms: _327  and  _329
REMARK  135  A    between atoms: _329  and  _330
REMARK  136  A    between atoms: _329  and  _332
REMARK  137  A    between atoms: _332  and  _333
REMARK  138  A    between atoms: _336  and  _338
REMARK  139  A    between atoms: _338  and  _339
REMARK  140  A    between atoms: _338  and  _341
REMARK  141  A    between atoms: _341  and  _342
REMARK  142  A    between atoms: _342  and  _343
REMARK  143  A    between atoms: _348  and  _350
REMARK  144  A    between atoms: _350  and  _351
REMARK  145  A    between atoms: _354  and  _356
REMARK  146  A    between atoms: _356  and  _357
REMARK  147  A    between atoms: _356  and  _359
REMARK  148  A    between atoms: _359  and  _360
REMARK  149  A    between atoms: _365  and  _366
REMARK  150  A    between atoms: _368  and  _370
REMARK  151  A    between atoms: _370  and  _371
REMARK  152  A    between atoms: _370  and  _373
REMARK  153  A    between atoms: _373  and  _374
REMARK  154  A    between atoms: _374  and  _375
REMARK  155  A    between atoms: _380  and  _382
REMARK  156  A    between atoms: _382  and  _383
REMARK  157  A    between atoms: _385  and  _387
REMARK  158  A    between atoms: _387  and  _388
REMARK  159  A    between atoms: _390  and  _392
REMARK  160  A    between atoms: _392  and  _393
REMARK  161  A    between atoms: _392  and  _395
REMARK  162  A    between atoms: _395  and  _396
REMARK  163  A    between atoms: _396  and  _397
REMARK  164  A    between atoms: _397  and  _398
REMARK  165  A    between atoms: _407  and  _409
REMARK  166  A    between atoms: _409  and  _410
REMARK  167  A    between atoms: _409  and  _412
REMARK  168  A    between atoms: _412  and  _413
REMARK  169  A    between atoms: _416  and  _418
REMARK  170  A    between atoms: _418  and  _419
REMARK  171  A    between atoms: _418  and  _421
REMARK  172  A    between atoms: _424  and  _426
REMARK  173  A    between atoms: _426  and  _427
REMARK  174  A    between atoms: _426  and  _429
REMARK  175  A    between atoms: _432  and  _434
REMARK  176  A    between atoms: _434  and  _435
REMARK  177  A    between atoms: _437  and  _439
REMARK  178  A    between atoms: _439  and  _440
REMARK  179  A    between atoms: _439  and  _442
REMARK  180  A    between atoms: _442  and  _443
REMARK  181  A    between atoms: _446  and  _448
REMARK  182  A    between atoms: _448  and  _449
REMARK  183  A    between atoms: _448  and  _451
REMARK  184  A    between atoms: _451  and  _452
REMARK  185  A    between atoms: _452  and  _453
REMARK  186  A    between atoms: _453  and  _454
REMARK  187  A    between atoms: _454  and  _455
REMARK  188  A    between atoms: _459  and  _461
REMARK  189  A    between atoms: _461  and  _462
REMARK  190  A    between atoms: _461  and  _464
REMARK  191  A    between atoms: _464  and  _465
REMARK  192  A    between atoms: _465  and  _466
REMARK  193  A    between atoms: _466  and  _467
REMARK  194  A    between atoms: _476  and  _478
REMARK  195  A    between atoms: _478  and  _479
REMARK  196  A    between atoms: _482  and  _484
REMARK  197  A    between atoms: _484  and  _485
REMARK  198  A    between atoms: _484  and  _487
REMARK  199  A    between atoms: _487  and  _488
REMARK  200  A    between atoms: _488  and  _489
REMARK  201  A    between atoms: _489  and  _490
REMARK  202  A    between atoms: _499  and  _501
REMARK  203  A    between atoms: _501  and  _502
REMARK  204  A    between atoms: _505  and  _507
REMARK  205  A    between atoms: _507  and  _508
REMARK  206  A    between atoms: _507  and  _510
REMARK  207  A    between atoms: _510  and  _511
REMARK  208  A    between atoms: _511  and  _512
REMARK  209  A    between atoms: _512  and  _513
REMARK  210  A    between atoms: _522  and  _524
REMARK  211  A    between atoms: _524  and  _525
REMARK  212  A    between atoms: _527  and  _529
REMARK  213  A    between atoms: _529  and  _530
REMARK  214  A    between atoms: _529  and  _532
REMARK  215  A    between atoms: _532  and  _533
REMARK  216  A    between atoms: _533  and  _534
REMARK  217  A    between atoms: _537  and  _539
REMARK  218  A    between atoms: _539  and  _540
REMARK  219  A    between atoms: _539  and  _542
REMARK  220  A    between atoms: _542  and  _543
REMARK  221  A    between atoms: _546  and  _548
REMARK  222  A    between atoms: _548  and  _549
REMARK  223  A    between atoms: _548  and  _551
REMARK  224  A    between atoms: _551  and  _552
REMARK  225  A    between atoms: _552  and  _553
REMARK  226  A    between atoms: _553  and  _554
REMARK  227  A    between atoms: _563  and  _565
REMARK  228  A    between atoms: _565  and  _566
REMARK  229  A    between atoms: _565  and  _568
REMARK  230  A    between atoms: _568  and  _569
REMARK  231  A    between atoms: _572  and  _574
REMARK  232  A    between atoms: _574  and  _575
REMARK  233  A    between atoms: _574  and  _577
REMARK  234  A    between atoms: _577  and  _578
REMARK  235  A    between atoms: _578  and  _579
REMARK  236  A    between atoms: _582  and  _584
REMARK  237  A    between atoms: _584  and  _585
REMARK  238  A    between atoms: _584  and  _587
REMARK  239  A    between atoms: _587  and  _588
REMARK  240  A    between atoms: _588  and  _589
REMARK  241  A    between atoms: _594  and  _596
REMARK  242  A    between atoms: _596  and  _597
REMARK  243  A    between atoms: _596  and  _599
REMARK  244  A    between atoms: _599  and  _600
REMARK  245  A    between atoms: _600  and  _601
REMARK  246  A    between atoms: _604  and  _606
REMARK  247  A    between atoms: _606  and  _607
REMARK  248  A    between atoms: _606  and  _609
REMARK  249  A    between atoms: _609  and  _610
REMARK  250  A    between atoms: _616  and  _618
REMARK  251  A    between atoms: _618  and  _619
REMARK  252  A    between atoms: _618  and  _621
REMARK  253  A    between atoms: _621  and  _622
REMARK  254  A    between atoms: _628  and  _630
REMARK  255  A    between atoms: _630  and  _631
REMARK  256  A    between atoms: _630  and  _633
REMARK  257  A    between atoms: _633  and  _634
REMARK  258  A    between atoms: _637  and  _639
REMARK  259  A    between atoms: _639  and  _640
REMARK  260  A    between atoms: _639  and  _642
REMARK  261  A    between atoms: _642  and  _643
REMARK  262  A    between atoms: _648  and  _649
REMARK  263  A    between atoms: _651  and  _653
REMARK  264  A    between atoms: _653  and  _654
REMARK  265  A    between atoms: _657  and  _659
REMARK  266  A    between atoms: _659  and  _660
REMARK  267  A    between atoms: _659  and  _662
REMARK  268  A    between atoms: _662  and  _663
REMARK  269  A    between atoms: _663  and  _664
REMARK  270  A    between atoms: _670  and  _671
REMARK  271  A    between atoms: _676  and  _678
REMARK  272  A    between atoms: _678  and  _679
REMARK  273  A    between atoms: _678  and  _681
REMARK  274  A    between atoms: _681  and  _682
REMARK  275  A    between atoms: _685  and  _687
REMARK  276  A    between atoms: _687  and  _688
REMARK  277  A    between atoms: _687  and  _690
REMARK  278  A    between atoms: _690  and  _691
REMARK  279  A    between atoms: _691  and  _692
REMARK  280  A    between atoms: _695  and  _697
REMARK  281  A    between atoms: _697  and  _698
REMARK  282  A    between atoms: _697  and  _700
REMARK  283  A    between atoms: _703  and  _705
REMARK  284  A    between atoms: _705  and  _706
REMARK  285  A    between atoms: _705  and  _708
REMARK  286  A    between atoms: _708  and  _709
REMARK  287  A    between atoms: _709  and  _710
REMARK                            x       y       z     vdW  Elec       q    Type
REMARK                         _______ _______ _______ _____ _____    ______ ____
ROOT
ATOM      1  O   HOH     1      21.933  96.545  26.132  0.00  0.00    +0.000 OA
ENDROOT
TORSDOF 0
