REMARK  Name = ../refined-set-2016/3fv3/3fv3_pocket.pdb
REMARK  230 active torsions:
REMARK  status: ('A' for Active; 'I' for Inactive)
REMARK    1  A    between atoms: _1  and  _3
REMARK    2  A    between atoms: _3  and  _4
REMARK    3  A    between atoms: _7  and  _8
REMARK    4  A    between atoms: _13  and  _15
REMARK    5  A    between atoms: _15  and  _16
REMARK    6  A    between atoms: _15  and  _18
REMARK    7  A    between atoms: _18  and  _19
REMARK    8  A    between atoms: _21  and  _23
REMARK    9  A    between atoms: _23  and  _24
REMARK   10  A    between atoms: _23  and  _26
REMARK   11  A    between atoms: _26  and  _27
REMARK   12  A    between atoms: _32  and  _33
REMARK   13  A    between atoms: _35  and  _37
REMARK   14  A    between atoms: _37  and  _38
REMARK   15  A    between atoms: _37  and  _40
REMARK   16  A    between atoms: _40  and  _41
REMARK   17  A    between atoms: _44  and  _46
REMARK   18  A    between atoms: _46  and  _47
REMARK   19  A    between atoms: _46  and  _49
REMARK   20  A    between atoms: _49  and  _50
REMARK   21  A    between atoms: _53  and  _55
REMARK   22  A    between atoms: _55  and  _56
REMARK   23  A    between atoms: _55  and  _58
REMARK   24  A    between atoms: _58  and  _59
REMARK   25  A    between atoms: _62  and  _64
REMARK   26  A    between atoms: _64  and  _65
REMARK   27  A    between atoms: _64  and  _67
REMARK   28  A    between atoms: _67  and  _68
REMARK   29  A    between atoms: _71  and  _73
REMARK   30  A    between atoms: _73  and  _74
REMARK   31  A    between atoms: _76  and  _78
REMARK   32  A    between atoms: _78  and  _79
REMARK   33  A    between atoms: _78  and  _81
REMARK   34  A    between atoms: _81  and  _82
REMARK   35  A    between atoms: _84  and  _86
REMARK   36  A    between atoms: _86  and  _87
REMARK   37  A    between atoms: _86  and  _89
REMARK   38  A    between atoms: _89  and  _90
REMARK   39  A    between atoms: _92  and  _94
REMARK   40  A    between atoms: _94  and  _95
REMARK   41  A    between atoms: _94  and  _97
REMARK   42  A    between atoms: _97  and  _98
REMARK   43  A    between atoms: _101  and  _103
REMARK   44  A    between atoms: _103  and  _104
REMARK   45  A    between atoms: _103  and  _106
REMARK   46  A    between atoms: _106  and  _107
REMARK   47  A    between atoms: _117  and  _119
REMARK   48  A    between atoms: _119  and  _120
REMARK   49  A    between atoms: _119  and  _122
REMARK   50  A    between atoms: _122  and  _123
REMARK   51  A    between atoms: _126  and  _128
REMARK   52  A    between atoms: _128  and  _129
REMARK   53  A    between atoms: _128  and  _131
REMARK   54  A    between atoms: _131  and  _132
REMARK   55  A    between atoms: _132  and  _133
REMARK   56  A    between atoms: _133  and  _134
REMARK   57  A    between atoms: _143  and  _145
REMARK   58  A    between atoms: _145  and  _146
REMARK   59  A    between atoms: _145  and  _148
REMARK   60  A    between atoms: _148  and  _149
REMARK   61  A    between atoms: _154  and  _155
REMARK   62  A    between atoms: _157  and  _159
REMARK   63  A    between atoms: _159  and  _160
REMARK   64  A    between atoms: _162  and  _164
REMARK   65  A    between atoms: _164  and  _165
REMARK   66  A    between atoms: _164  and  _167
REMARK   67  A    between atoms: _167  and  _168
REMARK   68  A    between atoms: _171  and  _173
REMARK   69  A    between atoms: _173  and  _174
REMARK   70  A    between atoms: _176  and  _178
REMARK   71  A    between atoms: _178  and  _179
REMARK   72  A    between atoms: _178  and  _181
REMARK   73  A    between atoms: _181  and  _182
REMARK   74  A    between atoms: _184  and  _186
REMARK   75  A    between atoms: _186  and  _187
REMARK   76  A    between atoms: _186  and  _189
REMARK   77  A    between atoms: _189  and  _190
REMARK   78  A    between atoms: _193  and  _195
REMARK   79  A    between atoms: _195  and  _196
REMARK   80  A    between atoms: _195  and  _198
REMARK   81  A    between atoms: _198  and  _199
REMARK   82  A    between atoms: _201  and  _203
REMARK   83  A    between atoms: _203  and  _204
REMARK   84  A    between atoms: _203  and  _206
REMARK   85  A    between atoms: _209  and  _211
REMARK   86  A    between atoms: _211  and  _212
REMARK   87  A    between atoms: _211  and  _214
REMARK   88  A    between atoms: _214  and  _215
REMARK   89  A    between atoms: _218  and  _220
REMARK   90  A    between atoms: _220  and  _221
REMARK   91  A    between atoms: _220  and  _223
REMARK   92  A    between atoms: _223  and  _224
REMARK   93  A    between atoms: _224  and  _225
REMARK   94  A    between atoms: _230  and  _232
REMARK   95  A    between atoms: _232  and  _233
REMARK   96  A    between atoms: _235  and  _237
REMARK   97  A    between atoms: _237  and  _238
REMARK   98  A    between atoms: _237  and  _240
REMARK   99  A    between atoms: _240  and  _241
REMARK  100  A    between atoms: _244  and  _246
REMARK  101  A    between atoms: _246  and  _247
REMARK  102  A    between atoms: _246  and  _249
REMARK  103  A    between atoms: _249  and  _250
REMARK  104  A    between atoms: _253  and  _255
REMARK  105  A    between atoms: _255  and  _256
REMARK  106  A    between atoms: _255  and  _258
REMARK  107  A    between atoms: _258  and  _259
REMARK  108  A    between atoms: _262  and  _264
REMARK  109  A    between atoms: _264  and  _265
REMARK  110  A    between atoms: _264  and  _267
REMARK  111  A    between atoms: _267  and  _268
REMARK  112  A    between atoms: _273  and  _275
REMARK  113  A    between atoms: _275  and  _276
REMARK  114  A    between atoms: _275  and  _278
REMARK  115  A    between atoms: _278  and  _279
REMARK  116  A    between atoms: _279  and  _280
REMARK  117  A    between atoms: _283  and  _285
REMARK  118  A    between atoms: _285  and  _286
REMARK  119  A    between atoms: _289  and  _291
REMARK  120  A    between atoms: _291  and  _292
REMARK  121  A    between atoms: _291  and  _294
REMARK  122  A    between atoms: _294  and  _295
REMARK  123  A    between atoms: _295  and  _296
REMARK  124  A    between atoms: _301  and  _303
REMARK  125  A    between atoms: _303  and  _304
REMARK  126  A    between atoms: _307  and  _309
REMARK  127  A    between atoms: _309  and  _310
REMARK  128  A    between atoms: _309  and  _312
REMARK  129  A    between atoms: _312  and  _313
REMARK  130  A    between atoms: _316  and  _318
REMARK  131  A    between atoms: _318  and  _319
REMARK  132  A    between atoms: _318  and  _321
REMARK  133  A    between atoms: _321  and  _322
REMARK  134  A    between atoms: _325  and  _327
REMARK  135  A    between atoms: _327  and  _328
REMARK  136  A    between atoms: _327  and  _330
REMARK  137  A    between atoms: _330  and  _331
REMARK  138  A    between atoms: _334  and  _336
REMARK  139  A    between atoms: _336  and  _337
REMARK  140  A    between atoms: _336  and  _339
REMARK  141  A    between atoms: _339  and  _340
REMARK  142  A    between atoms: _343  and  _345
REMARK  143  A    between atoms: _345  and  _346
REMARK  144  A    between atoms: _345  and  _348
REMARK  145  A    between atoms: _348  and  _349
REMARK  146  A    between atoms: _351  and  _353
REMARK  147  A    between atoms: _353  and  _354
REMARK  148  A    between atoms: _356  and  _358
REMARK  149  A    between atoms: _358  and  _359
REMARK  150  A    between atoms: _358  and  _361
REMARK  151  A    between atoms: _361  and  _362
REMARK  152  A    between atoms: _365  and  _367
REMARK  153  A    between atoms: _367  and  _368
REMARK  154  A    between atoms: _367  and  _370
REMARK  155  A    between atoms: _370  and  _371
REMARK  156  A    between atoms: _374  and  _376
REMARK  157  A    between atoms: _376  and  _377
REMARK  158  A    between atoms: _376  and  _379
REMARK  159  A    between atoms: _379  and  _380
REMARK  160  A    between atoms: _383  and  _385
REMARK  161  A    between atoms: _385  and  _386
REMARK  162  A    between atoms: _385  and  _388
REMARK  163  A    between atoms: _388  and  _389
REMARK  164  A    between atoms: _392  and  _394
REMARK  165  A    between atoms: _394  and  _395
REMARK  166  A    between atoms: _394  and  _397
REMARK  167  A    between atoms: _397  and  _398
REMARK  168  A    between atoms: _403  and  _404
REMARK  169  A    between atoms: _406  and  _408
REMARK  170  A    between atoms: _408  and  _409
REMARK  171  A    between atoms: _408  and  _411
REMARK  172  A    between atoms: _411  and  _412
REMARK  173  A    between atoms: _412  and  _413
REMARK  174  A    between atoms: _418  and  _420
REMARK  175  A    between atoms: _420  and  _421
REMARK  176  A    between atoms: _420  and  _423
REMARK  177  A    between atoms: _423  and  _424
REMARK  178  A    between atoms: _427  and  _429
REMARK  179  A    between atoms: _429  and  _430
REMARK  180  A    between atoms: _429  and  _432
REMARK  181  A    between atoms: _432  and  _433
REMARK  182  A    between atoms: _438  and  _439
REMARK  183  A    between atoms: _441  and  _443
REMARK  184  A    between atoms: _443  and  _444
REMARK  185  A    between atoms: _443  and  _446
REMARK  186  A    between atoms: _446  and  _447
REMARK  187  A    between atoms: _447  and  _448
REMARK  188  A    between atoms: _453  and  _455
REMARK  189  A    between atoms: _455  and  _456
REMARK  190  A    between atoms: _455  and  _458
REMARK  191  A    between atoms: _458  and  _459
REMARK  192  A    between atoms: _464  and  _466
REMARK  193  A    between atoms: _466  and  _467
REMARK  194  A    between atoms: _466  and  _469
REMARK  195  A    between atoms: _469  and  _470
REMARK  196  A    between atoms: _473  and  _475
REMARK  197  A    between atoms: _475  and  _476
REMARK  198  A    between atoms: _475  and  _478
REMARK  199  A    between atoms: _478  and  _479
REMARK  200  A    between atoms: _489  and  _491
REMARK  201  A    between atoms: _491  and  _492
REMARK  202  A    between atoms: _491  and  _494
REMARK  203  A    between atoms: _494  and  _495
REMARK  204  A    between atoms: _495  and  _496
REMARK  205  A    between atoms: _501  and  _503
REMARK  206  A    between atoms: _503  and  _504
REMARK  207  A    between atoms: _503  and  _506
REMARK  208  A    between atoms: _506  and  _507
REMARK  209  A    between atoms: _509  and  _511
REMARK  210  A    between atoms: _511  and  _512
REMARK  211  A    between atoms: _511  and  _514
REMARK  212  A    between atoms: _514  and  _515
REMARK  213  A    between atoms: _518  and  _520
REMARK  214  A    between atoms: _520  and  _521
REMARK  215  A    between atoms: _520  and  _523
REMARK  216  A    between atoms: _523  and  _524
REMARK  217  A    between atoms: _527  and  _529
REMARK  218  A    between atoms: _529  and  _530
REMARK  219  A    between atoms: _529  and  _532
REMARK  220  A    between atoms: _532  and  _533
REMARK  221  A    between atoms: _536  and  _538
REMARK  222  A    between atoms: _538  and  _539
REMARK  223  A    between atoms: _538  and  _541
REMARK  224  A    between atoms: _541  and  _542
REMARK  225  A    between atoms: _545  and  _547
REMARK  226  A    between atoms: _547  and  _548
REMARK  227  A    between atoms: _550  and  _552
REMARK  228  A    between atoms: _552  and  _553
REMARK  229  A    between atoms: _552  and  _555
REMARK  230  A    between atoms: _555  and  _556
REMARK                            x       y       z     vdW  Elec       q    Type
REMARK                         _______ _______ _______ _____ _____    ______ ____
ROOT
ATOM      1  CA  SER A   3      25.915  21.145  51.739  0.00  0.00    +0.178 C 
ENDROOT
BRANCH   1   4
ATOM      2  C   PRO A   2      24.629  22.912  50.661  0.00  0.00    +0.241 C 
ATOM      3  O   PRO A   2      24.517  23.547  51.718  0.00  0.00    -0.273 OA
ATOM      4  N   SER A   3      25.294  21.766  50.571  0.00  0.00    -0.295 N 
ATOM      5  H   SER A   3      25.375  21.298  49.646  0.00  0.00    +0.150 HD
BRANCH   2   8
ATOM      6  C   GLY A   1      25.626  23.079  47.580  0.00  0.00    +0.243 C 
ATOM      7  N   PRO A   2      24.431  22.737  48.127  0.00  0.00    -0.272 N 
ATOM      8  CA  PRO A   2      23.971  23.420  49.373  0.00  0.00    +0.152 C 
ATOM      9  CB  PRO A   2      22.467  23.101  49.404  0.00  0.00    +0.031 C 
ATOM     10  CG  PRO A   2      22.392  21.734  48.763  0.00  0.00    +0.024 C 
ATOM     11  CD  PRO A   2      23.438  21.757  47.658  0.00  0.00    +0.094 C 
ATOM     12  O   GLY A   1      26.391  23.886  48.100  0.00  0.00    -0.273 OA
BRANCH   6  13
ATOM     13  CA  GLY A   1      26.043  22.437  46.276  0.00  0.00    +0.170 C 
BRANCH  13  14
ATOM     14  N   GLY A   1      26.856  21.262  46.575  0.00  0.00    -0.236 NA
ATOM     15  H   GLY A   1      27.813  21.375  46.967  0.00  0.00    +0.142 HD
ENDBRANCH  13  14
ENDBRANCH   6  13
ENDBRANCH   2   8
ENDBRANCH   1   4
BRANCH   1  16
ATOM     16  C   SER A   3      27.072  20.242  51.313  0.00  0.00    +0.243 C 
ATOM     17  N   TYR A   4      27.777  19.693  52.305  0.00  0.00    -0.298 N 
ATOM     18  H   TYR A   4      27.467  19.854  53.285  0.00  0.00    +0.150 HD
ATOM     19  O   SER A   3      27.340  20.083  50.109  0.00  0.00    -0.273 OA
BRANCH  17  20
ATOM     20  CA  TYR A   4      28.971  18.872  52.072  0.00  0.00    +0.141 C 
BRANCH  20  21
ATOM     21  C   TYR A   4      28.697  17.520  52.693  0.00  0.00    +0.227 C 
ATOM     22  O   TYR A   4      28.252  17.448  53.857  0.00  0.00    -0.286 OA
ENDBRANCH  20  21
BRANCH  20  23
ATOM     23  CB  TYR A   4      30.212  19.534  52.721  0.00  0.00    +0.054 C 
BRANCH  23  24
ATOM     24  CG  TYR A   4      30.680  20.750  51.942  0.00  0.00    -0.020 A 
ATOM     25  CD2 TYR A   4      29.999  21.973  52.041  0.00  0.00    -0.001 A 
ATOM     26  CE2 TYR A   4      30.412  23.094  51.313  0.00  0.00    +0.036 A 
ATOM     27  CZ  TYR A   4      31.508  22.996  50.465  0.00  0.00    +0.134 A 
ATOM     28  CE1 TYR A   4      32.191  21.793  50.331  0.00  0.00    +0.036 A 
ATOM     29  CD1 TYR A   4      31.769  20.669  51.087  0.00  0.00    -0.001 A 
BRANCH  27  30
ATOM     30  OH  TYR A   4      31.910  24.090  49.744  0.00  0.00    -0.506 OA
ATOM     31  HH  TYR A   4      32.698  23.851  49.195  0.00  0.00    +0.292 HD
ENDBRANCH  27  30
ENDBRANCH  23  24
ENDBRANCH  20  23
ENDBRANCH  17  20
ENDBRANCH   1  16
BRANCH   1  32
ATOM     32  CB  SER A   3      24.869  20.363  52.545  0.00  0.00    +0.166 C 
BRANCH  32  33
ATOM     33  OG  SER A   3      24.305  19.309  51.786  0.00  0.00    -0.380 OA
ATOM     34  H   SER A   3      25.020  18.682  51.511  0.00  0.00    +0.211 HD
ENDBRANCH  32  33
ENDBRANCH   1  32
TORSDOF 12
REMARK  Name = ../refined-set-2016/3fv3/3fv3_pocket.pdb
REMARK  230 active torsions:
REMARK  status: ('A' for Active; 'I' for Inactive)
REMARK    1  A    between atoms: _1  and  _3
REMARK    2  A    between atoms: _3  and  _4
REMARK    3  A    between atoms: _7  and  _8
REMARK    4  A    between atoms: _13  and  _15
REMARK    5  A    between atoms: _15  and  _16
REMARK    6  A    between atoms: _15  and  _18
REMARK    7  A    between atoms: _18  and  _19
REMARK    8  A    between atoms: _21  and  _23
REMARK    9  A    between atoms: _23  and  _24
REMARK   10  A    between atoms: _23  and  _26
REMARK   11  A    between atoms: _26  and  _27
REMARK   12  A    between atoms: _32  and  _33
REMARK   13  A    between atoms: _35  and  _37
REMARK   14  A    between atoms: _37  and  _38
REMARK   15  A    between atoms: _37  and  _40
REMARK   16  A    between atoms: _40  and  _41
REMARK   17  A    between atoms: _44  and  _46
REMARK   18  A    between atoms: _46  and  _47
REMARK   19  A    between atoms: _46  and  _49
REMARK   20  A    between atoms: _49  and  _50
REMARK   21  A    between atoms: _53  and  _55
REMARK   22  A    between atoms: _55  and  _56
REMARK   23  A    between atoms: _55  and  _58
REMARK   24  A    between atoms: _58  and  _59
REMARK   25  A    between atoms: _62  and  _64
REMARK   26  A    between atoms: _64  and  _65
REMARK   27  A    between atoms: _64  and  _67
REMARK   28  A    between atoms: _67  and  _68
REMARK   29  A    between atoms: _71  and  _73
REMARK   30  A    between atoms: _73  and  _74
REMARK   31  A    between atoms: _76  and  _78
REMARK   32  A    between atoms: _78  and  _79
REMARK   33  A    between atoms: _78  and  _81
REMARK   34  A    between atoms: _81  and  _82
REMARK   35  A    between atoms: _84  and  _86
REMARK   36  A    between atoms: _86  and  _87
REMARK   37  A    between atoms: _86  and  _89
REMARK   38  A    between atoms: _89  and  _90
REMARK   39  A    between atoms: _92  and  _94
REMARK   40  A    between atoms: _94  and  _95
REMARK   41  A    between atoms: _94  and  _97
REMARK   42  A    between atoms: _97  and  _98
REMARK   43  A    between atoms: _101  and  _103
REMARK   44  A    between atoms: _103  and  _104
REMARK   45  A    between atoms: _103  and  _106
REMARK   46  A    between atoms: _106  and  _107
REMARK   47  A    between atoms: _117  and  _119
REMARK   48  A    between atoms: _119  and  _120
REMARK   49  A    between atoms: _119  and  _122
REMARK   50  A    between atoms: _122  and  _123
REMARK   51  A    between atoms: _126  and  _128
REMARK   52  A    between atoms: _128  and  _129
REMARK   53  A    between atoms: _128  and  _131
REMARK   54  A    between atoms: _131  and  _132
REMARK   55  A    between atoms: _132  and  _133
REMARK   56  A    between atoms: _133  and  _134
REMARK   57  A    between atoms: _143  and  _145
REMARK   58  A    between atoms: _145  and  _146
REMARK   59  A    between atoms: _145  and  _148
REMARK   60  A    between atoms: _148  and  _149
REMARK   61  A    between atoms: _154  and  _155
REMARK   62  A    between atoms: _157  and  _159
REMARK   63  A    between atoms: _159  and  _160
REMARK   64  A    between atoms: _162  and  _164
REMARK   65  A    between atoms: _164  and  _165
REMARK   66  A    between atoms: _164  and  _167
REMARK   67  A    between atoms: _167  and  _168
REMARK   68  A    between atoms: _171  and  _173
REMARK   69  A    between atoms: _173  and  _174
REMARK   70  A    between atoms: _176  and  _178
REMARK   71  A    between atoms: _178  and  _179
REMARK   72  A    between atoms: _178  and  _181
REMARK   73  A    between atoms: _181  and  _182
REMARK   74  A    between atoms: _184  and  _186
REMARK   75  A    between atoms: _186  and  _187
REMARK   76  A    between atoms: _186  and  _189
REMARK   77  A    between atoms: _189  and  _190
REMARK   78  A    between atoms: _193  and  _195
REMARK   79  A    between atoms: _195  and  _196
REMARK   80  A    between atoms: _195  and  _198
REMARK   81  A    between atoms: _198  and  _199
REMARK   82  A    between atoms: _201  and  _203
REMARK   83  A    between atoms: _203  and  _204
REMARK   84  A    between atoms: _203  and  _206
REMARK   85  A    between atoms: _209  and  _211
REMARK   86  A    between atoms: _211  and  _212
REMARK   87  A    between atoms: _211  and  _214
REMARK   88  A    between atoms: _214  and  _215
REMARK   89  A    between atoms: _218  and  _220
REMARK   90  A    between atoms: _220  and  _221
REMARK   91  A    between atoms: _220  and  _223
REMARK   92  A    between atoms: _223  and  _224
REMARK   93  A    between atoms: _224  and  _225
REMARK   94  A    between atoms: _230  and  _232
REMARK   95  A    between atoms: _232  and  _233
REMARK   96  A    between atoms: _235  and  _237
REMARK   97  A    between atoms: _237  and  _238
REMARK   98  A    between atoms: _237  and  _240
REMARK   99  A    between atoms: _240  and  _241
REMARK  100  A    between atoms: _244  and  _246
REMARK  101  A    between atoms: _246  and  _247
REMARK  102  A    between atoms: _246  and  _249
REMARK  103  A    between atoms: _249  and  _250
REMARK  104  A    between atoms: _253  and  _255
REMARK  105  A    between atoms: _255  and  _256
REMARK  106  A    between atoms: _255  and  _258
REMARK  107  A    between atoms: _258  and  _259
REMARK  108  A    between atoms: _262  and  _264
REMARK  109  A    between atoms: _264  and  _265
REMARK  110  A    between atoms: _264  and  _267
REMARK  111  A    between atoms: _267  and  _268
REMARK  112  A    between atoms: _273  and  _275
REMARK  113  A    between atoms: _275  and  _276
REMARK  114  A    between atoms: _275  and  _278
REMARK  115  A    between atoms: _278  and  _279
REMARK  116  A    between atoms: _279  and  _280
REMARK  117  A    between atoms: _283  and  _285
REMARK  118  A    between atoms: _285  and  _286
REMARK  119  A    between atoms: _289  and  _291
REMARK  120  A    between atoms: _291  and  _292
REMARK  121  A    between atoms: _291  and  _294
REMARK  122  A    between atoms: _294  and  _295
REMARK  123  A    between atoms: _295  and  _296
REMARK  124  A    between atoms: _301  and  _303
REMARK  125  A    between atoms: _303  and  _304
REMARK  126  A    between atoms: _307  and  _309
REMARK  127  A    between atoms: _309  and  _310
REMARK  128  A    between atoms: _309  and  _312
REMARK  129  A    between atoms: _312  and  _313
REMARK  130  A    between atoms: _316  and  _318
REMARK  131  A    between atoms: _318  and  _319
REMARK  132  A    between atoms: _318  and  _321
REMARK  133  A    between atoms: _321  and  _322
REMARK  134  A    between atoms: _325  and  _327
REMARK  135  A    between atoms: _327  and  _328
REMARK  136  A    between atoms: _327  and  _330
REMARK  137  A    between atoms: _330  and  _331
REMARK  138  A    between atoms: _334  and  _336
REMARK  139  A    between atoms: _336  and  _337
REMARK  140  A    between atoms: _336  and  _339
REMARK  141  A    between atoms: _339  and  _340
REMARK  142  A    between atoms: _343  and  _345
REMARK  143  A    between atoms: _345  and  _346
REMARK  144  A    between atoms: _345  and  _348
REMARK  145  A    between atoms: _348  and  _349
REMARK  146  A    between atoms: _351  and  _353
REMARK  147  A    between atoms: _353  and  _354
REMARK  148  A    between atoms: _356  and  _358
REMARK  149  A    between atoms: _358  and  _359
REMARK  150  A    between atoms: _358  and  _361
REMARK  151  A    between atoms: _361  and  _362
REMARK  152  A    between atoms: _365  and  _367
REMARK  153  A    between atoms: _367  and  _368
REMARK  154  A    between atoms: _367  and  _370
REMARK  155  A    between atoms: _370  and  _371
REMARK  156  A    between atoms: _374  and  _376
REMARK  157  A    between atoms: _376  and  _377
REMARK  158  A    between atoms: _376  and  _379
REMARK  159  A    between atoms: _379  and  _380
REMARK  160  A    between atoms: _383  and  _385
REMARK  161  A    between atoms: _385  and  _386
REMARK  162  A    between atoms: _385  and  _388
REMARK  163  A    between atoms: _388  and  _389
REMARK  164  A    between atoms: _392  and  _394
REMARK  165  A    between atoms: _394  and  _395
REMARK  166  A    between atoms: _394  and  _397
REMARK  167  A    between atoms: _397  and  _398
REMARK  168  A    between atoms: _403  and  _404
REMARK  169  A    between atoms: _406  and  _408
REMARK  170  A    between atoms: _408  and  _409
REMARK  171  A    between atoms: _408  and  _411
REMARK  172  A    between atoms: _411  and  _412
REMARK  173  A    between atoms: _412  and  _413
REMARK  174  A    between atoms: _418  and  _420
REMARK  175  A    between atoms: _420  and  _421
REMARK  176  A    between atoms: _420  and  _423
REMARK  177  A    between atoms: _423  and  _424
REMARK  178  A    between atoms: _427  and  _429
REMARK  179  A    between atoms: _429  and  _430
REMARK  180  A    between atoms: _429  and  _432
REMARK  181  A    between atoms: _432  and  _433
REMARK  182  A    between atoms: _438  and  _439
REMARK  183  A    between atoms: _441  and  _443
REMARK  184  A    between atoms: _443  and  _444
REMARK  185  A    between atoms: _443  and  _446
REMARK  186  A    between atoms: _446  and  _447
REMARK  187  A    between atoms: _447  and  _448
REMARK  188  A    between atoms: _453  and  _455
REMARK  189  A    between atoms: _455  and  _456
REMARK  190  A    between atoms: _455  and  _458
REMARK  191  A    between atoms: _458  and  _459
REMARK  192  A    between atoms: _464  and  _466
REMARK  193  A    between atoms: _466  and  _467
REMARK  194  A    between atoms: _466  and  _469
REMARK  195  A    between atoms: _469  and  _470
REMARK  196  A    between atoms: _473  and  _475
REMARK  197  A    between atoms: _475  and  _476
REMARK  198  A    between atoms: _475  and  _478
REMARK  199  A    between atoms: _478  and  _479
REMARK  200  A    between atoms: _489  and  _491
REMARK  201  A    between atoms: _491  and  _492
REMARK  202  A    between atoms: _491  and  _494
REMARK  203  A    between atoms: _494  and  _495
REMARK  204  A    between atoms: _495  and  _496
REMARK  205  A    between atoms: _501  and  _503
REMARK  206  A    between atoms: _503  and  _504
REMARK  207  A    between atoms: _503  and  _506
REMARK  208  A    between atoms: _506  and  _507
REMARK  209  A    between atoms: _509  and  _511
REMARK  210  A    between atoms: _511  and  _512
REMARK  211  A    between atoms: _511  and  _514
REMARK  212  A    between atoms: _514  and  _515
REMARK  213  A    between atoms: _518  and  _520
REMARK  214  A    between atoms: _520  and  _521
REMARK  215  A    between atoms: _520  and  _523
REMARK  216  A    between atoms: _523  and  _524
REMARK  217  A    between atoms: _527  and  _529
REMARK  218  A    between atoms: _529  and  _530
REMARK  219  A    between atoms: _529  and  _532
REMARK  220  A    between atoms: _532  and  _533
REMARK  221  A    between atoms: _536  and  _538
REMARK  222  A    between atoms: _538  and  _539
REMARK  223  A    between atoms: _538  and  _541
REMARK  224  A    between atoms: _541  and  _542
REMARK  225  A    between atoms: _545  and  _547
REMARK  226  A    between atoms: _547  and  _548
REMARK  227  A    between atoms: _550  and  _552
REMARK  228  A    between atoms: _552  and  _553
REMARK  229  A    between atoms: _552  and  _555
REMARK  230  A    between atoms: _555  and  _556
REMARK                            x       y       z     vdW  Elec       q    Type
REMARK                         _______ _______ _______ _____ _____    ______ ____
ROOT
ATOM      1  CA  THR A   4      28.838  20.634  62.958  0.00  0.00    +0.176 C 
ENDROOT
BRANCH   1   4
ATOM      2  C   ASP A   3      27.605  19.071  61.509  0.00  0.00    +0.241 C 
ATOM      3  O   ASP A   3      27.273  18.389  62.469  0.00  0.00    -0.273 OA
ATOM      4  N   THR A   4      28.385  20.154  61.614  0.00  0.00    -0.295 N 
ATOM      5  H   THR A   4      28.678  20.665  60.757  0.00  0.00    +0.150 HD
BRANCH   2   6
ATOM      6  CA  ASP A   3      27.080  18.720  60.113  0.00  0.00    +0.160 C 
BRANCH   6   8
ATOM      7  C   ILE A   2      28.324  17.729  58.286  0.00  0.00    +0.241 C 
ATOM      8  N   ASP A   3      27.849  17.635  59.524  0.00  0.00    -0.297 N 
ATOM      9  H   ASP A   3      28.030  16.774  60.079  0.00  0.00    +0.150 HD
ATOM     10  O   ILE A   2      28.393  18.807  57.681  0.00  0.00    -0.273 OA
BRANCH   7  11
ATOM     11  CA  ILE A   2      28.792  16.426  57.628  0.00  0.00    +0.148 C 
BRANCH  11  14
ATOM     12  C   ILE A   1      26.768  15.530  56.567  0.00  0.00    +0.238 C 
ATOM     13  O   ILE A   1      26.392  14.991  57.631  0.00  0.00    -0.274 OA
ATOM     14  N   ILE A   2      27.920  16.198  56.458  0.00  0.00    -0.297 N 
ATOM     15  H   ILE A   2      28.209  16.565  55.529  0.00  0.00    +0.150 HD
BRANCH  12  16
ATOM     16  CA  ILE A   1      25.910  15.444  55.297  0.00  0.00    +0.145 C 
BRANCH  16  17
ATOM     17  CB  ILE A   1      24.662  16.359  55.436  0.00  0.00    +0.025 C 
ATOM     18  CG2 ILE A   1      25.060  17.763  55.981  0.00  0.00    +0.002 C 
BRANCH  17  19
ATOM     19  CG1 ILE A   1      23.948  16.463  54.086  0.00  0.00    +0.002 C 
ATOM     20  CD1 ILE A   1      22.524  17.011  54.138  0.00  0.00    +0.000 C 
ENDBRANCH  17  19
ENDBRANCH  16  17
BRANCH  16  21
ATOM     21  N   ILE A   1      25.492  14.068  55.082  0.00  0.00    -0.238 NA
ATOM     22  H   ILE A   1      24.485  13.832  55.189  0.00  0.00    +0.142 HD
ENDBRANCH  16  21
ENDBRANCH  12  16
ENDBRANCH  11  14
BRANCH  11  23
ATOM     23  CB  ILE A   2      30.267  16.525  57.182  0.00  0.00    +0.027 C 
ATOM     24  CG2 ILE A   2      31.196  16.917  58.364  0.00  0.00    +0.002 C 
BRANCH  23  25
ATOM     25  CG1 ILE A   2      30.713  15.214  56.530  0.00  0.00    +0.002 C 
ATOM     26  CD1 ILE A   2      30.553  13.970  57.399  0.00  0.00    +0.000 C 
ENDBRANCH  23  25
ENDBRANCH  11  23
ENDBRANCH   7  11
ENDBRANCH   6   8
BRANCH   6  27
ATOM     27  CB  ASP A   3      25.617  18.282  60.183  0.00  0.00    +0.143 C 
BRANCH  27  28
ATOM     28  CG  ASP A   3      24.681  19.380  60.655  0.00  0.00    +0.367 C 
ATOM     29  OD2 ASP A   3      23.554  19.039  61.101  0.00  0.00    -0.246 OA
ATOM     30  OD1 ASP A   3      25.033  20.577  60.569  0.00  0.00    -0.246 OA
ENDBRANCH  27  28
ENDBRANCH   6  27
ENDBRANCH   2   6
ENDBRANCH   1   4
BRANCH   1  31
ATOM     31  C   THR A   4      27.680  21.254  63.745  0.00  0.00    +0.243 C 
ATOM     32  O   THR A   4      27.831  21.567  64.939  0.00  0.00    -0.273 OA
ATOM     33  N   GLY A   5      26.538  21.460  63.067  0.00  0.00    -0.295 N 
ATOM     34  H   GLY A   5      26.477  21.138  62.080  0.00  0.00    +0.150 HD
BRANCH  33  35
ATOM     35  CA  GLY A   5      25.370  22.125  63.669  0.00  0.00    +0.176 C 
BRANCH  35  36
ATOM     36  C   GLY A   5      24.365  21.200  64.362  0.00  0.00    +0.243 C 
ATOM     37  O   GLY A   5      23.375  21.671  64.938  0.00  0.00    -0.273 OA
ATOM     38  N   SER A   6      24.615  19.896  64.295  0.00  0.00    -0.295 N 
ATOM     39  H   SER A   6      25.424  19.568  63.729  0.00  0.00    +0.150 HD
BRANCH  38  40
ATOM     40  CA  SER A   6      23.790  18.906  64.991  0.00  0.00    +0.178 C 
BRANCH  40  41
ATOM     41  C   SER A   6      24.697  17.808  65.511  0.00  0.00    +0.243 C 
ATOM     42  N   SER A   7      24.136  16.892  66.292  0.00  0.00    -0.295 N 
ATOM     43  H   SER A   7      23.100  16.821  66.341  0.00  0.00    +0.150 HD
ATOM     44  O   SER A   6      25.884  17.791  65.208  0.00  0.00    -0.273 OA
BRANCH  42  45
ATOM     45  CA  SER A   7      24.960  15.987  67.080  0.00  0.00    +0.178 C 
BRANCH  45  46
ATOM     46  C   SER A   7      24.621  14.511  66.921  0.00  0.00    +0.243 C 
ATOM     47  O   SER A   7      25.250  13.668  67.588  0.00  0.00    -0.273 OA
ATOM     48  N   ASP A   8      23.648  14.197  66.058  0.00  0.00    -0.297 N 
ATOM     49  H   ASP A   8      23.223  14.947  65.476  0.00  0.00    +0.150 HD
BRANCH  48  50
ATOM     50  CA  ASP A   8      23.168  12.817  65.915  0.00  0.00    +0.148 C 
BRANCH  50  51
ATOM     51  C   ASP A   8      23.485  12.307  64.521  0.00  0.00    +0.227 C 
ATOM     52  O   ASP A   8      23.358  13.061  63.559  0.00  0.00    -0.286 OA
ENDBRANCH  50  51
BRANCH  50  53
ATOM     53  CB  ASP A   8      21.657  12.741  66.170  0.00  0.00    +0.142 C 
BRANCH  53  54
ATOM     54  CG  ASP A   8      21.279  13.324  67.514  0.00  0.00    +0.367 C 
ATOM     55  OD2 ASP A   8      21.704  12.770  68.553  0.00  0.00    -0.246 OA
ATOM     56  OD1 ASP A   8      20.573  14.342  67.514  0.00  0.00    -0.246 OA
ENDBRANCH  53  54
ENDBRANCH  50  53
ENDBRANCH  48  50
ENDBRANCH  45  46
BRANCH  45  57
ATOM     57  CB  SER A   7      24.901  16.422  68.558  0.00  0.00    +0.166 C 
BRANCH  57  58
ATOM     58  OG  SER A   7      25.461  17.719  68.653  0.00  0.00    -0.380 OA
ATOM     59  H   SER A   7      25.434  18.021  69.596  0.00  0.00    +0.211 HD
ENDBRANCH  57  58
ENDBRANCH  45  57
ENDBRANCH  42  45
ENDBRANCH  40  41
BRANCH  40  60
ATOM     60  CB  SER A   6      22.670  18.333  64.088  0.00  0.00    +0.166 C 
BRANCH  60  61
ATOM     61  OG  SER A   6      23.180  17.455  63.075  0.00  0.00    -0.380 OA
ATOM     62  H   SER A   6      23.814  17.951  62.499  0.00  0.00    +0.211 HD
ENDBRANCH  60  61
ENDBRANCH  40  60
ENDBRANCH  38  40
ENDBRANCH  35  36
ENDBRANCH  33  35
ENDBRANCH   1  31
BRANCH   1  63
ATOM     63  CB  THR A   4      29.987  21.647  62.831  0.00  0.00    +0.137 C 
ATOM     64  CG2 THR A   4      31.153  21.026  62.016  0.00  0.00    +0.034 C 
BRANCH  63  65
ATOM     65  OG1 THR A   4      29.501  22.843  62.191  0.00  0.00    -0.382 OA
ATOM     66  HG1 THR A   4      30.241  23.496  62.109  0.00  0.00    +0.210 HD
ENDBRANCH  63  65
ENDBRANCH   1  63
TORSDOF 30
REMARK  Name = ../refined-set-2016/3fv3/3fv3_pocket.pdb
REMARK  230 active torsions:
REMARK  status: ('A' for Active; 'I' for Inactive)
REMARK    1  A    between atoms: _1  and  _3
REMARK    2  A    between atoms: _3  and  _4
REMARK    3  A    between atoms: _7  and  _8
REMARK    4  A    between atoms: _13  and  _15
REMARK    5  A    between atoms: _15  and  _16
REMARK    6  A    between atoms: _15  and  _18
REMARK    7  A    between atoms: _18  and  _19
REMARK    8  A    between atoms: _21  and  _23
REMARK    9  A    between atoms: _23  and  _24
REMARK   10  A    between atoms: _23  and  _26
REMARK   11  A    between atoms: _26  and  _27
REMARK   12  A    between atoms: _32  and  _33
REMARK   13  A    between atoms: _35  and  _37
REMARK   14  A    between atoms: _37  and  _38
REMARK   15  A    between atoms: _37  and  _40
REMARK   16  A    between atoms: _40  and  _41
REMARK   17  A    between atoms: _44  and  _46
REMARK   18  A    between atoms: _46  and  _47
REMARK   19  A    between atoms: _46  and  _49
REMARK   20  A    between atoms: _49  and  _50
REMARK   21  A    between atoms: _53  and  _55
REMARK   22  A    between atoms: _55  and  _56
REMARK   23  A    between atoms: _55  and  _58
REMARK   24  A    between atoms: _58  and  _59
REMARK   25  A    between atoms: _62  and  _64
REMARK   26  A    between atoms: _64  and  _65
REMARK   27  A    between atoms: _64  and  _67
REMARK   28  A    between atoms: _67  and  _68
REMARK   29  A    between atoms: _71  and  _73
REMARK   30  A    between atoms: _73  and  _74
REMARK   31  A    between atoms: _76  and  _78
REMARK   32  A    between atoms: _78  and  _79
REMARK   33  A    between atoms: _78  and  _81
REMARK   34  A    between atoms: _81  and  _82
REMARK   35  A    between atoms: _84  and  _86
REMARK   36  A    between atoms: _86  and  _87
REMARK   37  A    between atoms: _86  and  _89
REMARK   38  A    between atoms: _89  and  _90
REMARK   39  A    between atoms: _92  and  _94
REMARK   40  A    between atoms: _94  and  _95
REMARK   41  A    between atoms: _94  and  _97
REMARK   42  A    between atoms: _97  and  _98
REMARK   43  A    between atoms: _101  and  _103
REMARK   44  A    between atoms: _103  and  _104
REMARK   45  A    between atoms: _103  and  _106
REMARK   46  A    between atoms: _106  and  _107
REMARK   47  A    between atoms: _117  and  _119
REMARK   48  A    between atoms: _119  and  _120
REMARK   49  A    between atoms: _119  and  _122
REMARK   50  A    between atoms: _122  and  _123
REMARK   51  A    between atoms: _126  and  _128
REMARK   52  A    between atoms: _128  and  _129
REMARK   53  A    between atoms: _128  and  _131
REMARK   54  A    between atoms: _131  and  _132
REMARK   55  A    between atoms: _132  and  _133
REMARK   56  A    between atoms: _133  and  _134
REMARK   57  A    between atoms: _143  and  _145
REMARK   58  A    between atoms: _145  and  _146
REMARK   59  A    between atoms: _145  and  _148
REMARK   60  A    between atoms: _148  and  _149
REMARK   61  A    between atoms: _154  and  _155
REMARK   62  A    between atoms: _157  and  _159
REMARK   63  A    between atoms: _159  and  _160
REMARK   64  A    between atoms: _162  and  _164
REMARK   65  A    between atoms: _164  and  _165
REMARK   66  A    between atoms: _164  and  _167
REMARK   67  A    between atoms: _167  and  _168
REMARK   68  A    between atoms: _171  and  _173
REMARK   69  A    between atoms: _173  and  _174
REMARK   70  A    between atoms: _176  and  _178
REMARK   71  A    between atoms: _178  and  _179
REMARK   72  A    between atoms: _178  and  _181
REMARK   73  A    between atoms: _181  and  _182
REMARK   74  A    between atoms: _184  and  _186
REMARK   75  A    between atoms: _186  and  _187
REMARK   76  A    between atoms: _186  and  _189
REMARK   77  A    between atoms: _189  and  _190
REMARK   78  A    between atoms: _193  and  _195
REMARK   79  A    between atoms: _195  and  _196
REMARK   80  A    between atoms: _195  and  _198
REMARK   81  A    between atoms: _198  and  _199
REMARK   82  A    between atoms: _201  and  _203
REMARK   83  A    between atoms: _203  and  _204
REMARK   84  A    between atoms: _203  and  _206
REMARK   85  A    between atoms: _209  and  _211
REMARK   86  A    between atoms: _211  and  _212
REMARK   87  A    between atoms: _211  and  _214
REMARK   88  A    between atoms: _214  and  _215
REMARK   89  A    between atoms: _218  and  _220
REMARK   90  A    between atoms: _220  and  _221
REMARK   91  A    between atoms: _220  and  _223
REMARK   92  A    between atoms: _223  and  _224
REMARK   93  A    between atoms: _224  and  _225
REMARK   94  A    between atoms: _230  and  _232
REMARK   95  A    between atoms: _232  and  _233
REMARK   96  A    between atoms: _235  and  _237
REMARK   97  A    between atoms: _237  and  _238
REMARK   98  A    between atoms: _237  and  _240
REMARK   99  A    between atoms: _240  and  _241
REMARK  100  A    between atoms: _244  and  _246
REMARK  101  A    between atoms: _246  and  _247
REMARK  102  A    between atoms: _246  and  _249
REMARK  103  A    between atoms: _249  and  _250
REMARK  104  A    between atoms: _253  and  _255
REMARK  105  A    between atoms: _255  and  _256
REMARK  106  A    between atoms: _255  and  _258
REMARK  107  A    between atoms: _258  and  _259
REMARK  108  A    between atoms: _262  and  _264
REMARK  109  A    between atoms: _264  and  _265
REMARK  110  A    between atoms: _264  and  _267
REMARK  111  A    between atoms: _267  and  _268
REMARK  112  A    between atoms: _273  and  _275
REMARK  113  A    between atoms: _275  and  _276
REMARK  114  A    between atoms: _275  and  _278
REMARK  115  A    between atoms: _278  and  _279
REMARK  116  A    between atoms: _279  and  _280
REMARK  117  A    between atoms: _283  and  _285
REMARK  118  A    between atoms: _285  and  _286
REMARK  119  A    between atoms: _289  and  _291
REMARK  120  A    between atoms: _291  and  _292
REMARK  121  A    between atoms: _291  and  _294
REMARK  122  A    between atoms: _294  and  _295
REMARK  123  A    between atoms: _295  and  _296
REMARK  124  A    between atoms: _301  and  _303
REMARK  125  A    between atoms: _303  and  _304
REMARK  126  A    between atoms: _307  and  _309
REMARK  127  A    between atoms: _309  and  _310
REMARK  128  A    between atoms: _309  and  _312
REMARK  129  A    between atoms: _312  and  _313
REMARK  130  A    between atoms: _316  and  _318
REMARK  131  A    between atoms: _318  and  _319
REMARK  132  A    between atoms: _318  and  _321
REMARK  133  A    between atoms: _321  and  _322
REMARK  134  A    between atoms: _325  and  _327
REMARK  135  A    between atoms: _327  and  _328
REMARK  136  A    between atoms: _327  and  _330
REMARK  137  A    between atoms: _330  and  _331
REMARK  138  A    between atoms: _334  and  _336
REMARK  139  A    between atoms: _336  and  _337
REMARK  140  A    between atoms: _336  and  _339
REMARK  141  A    between atoms: _339  and  _340
REMARK  142  A    between atoms: _343  and  _345
REMARK  143  A    between atoms: _345  and  _346
REMARK  144  A    between atoms: _345  and  _348
REMARK  145  A    between atoms: _348  and  _349
REMARK  146  A    between atoms: _351  and  _353
REMARK  147  A    between atoms: _353  and  _354
REMARK  148  A    between atoms: _356  and  _358
REMARK  149  A    between atoms: _358  and  _359
REMARK  150  A    between atoms: _358  and  _361
REMARK  151  A    between atoms: _361  and  _362
REMARK  152  A    between atoms: _365  and  _367
REMARK  153  A    between atoms: _367  and  _368
REMARK  154  A    between atoms: _367  and  _370
REMARK  155  A    between atoms: _370  and  _371
REMARK  156  A    between atoms: _374  and  _376
REMARK  157  A    between atoms: _376  and  _377
REMARK  158  A    between atoms: _376  and  _379
REMARK  159  A    between atoms: _379  and  _380
REMARK  160  A    between atoms: _383  and  _385
REMARK  161  A    between atoms: _385  and  _386
REMARK  162  A    between atoms: _385  and  _388
REMARK  163  A    between atoms: _388  and  _389
REMARK  164  A    between atoms: _392  and  _394
REMARK  165  A    between atoms: _394  and  _395
REMARK  166  A    between atoms: _394  and  _397
REMARK  167  A    between atoms: _397  and  _398
REMARK  168  A    between atoms: _403  and  _404
REMARK  169  A    between atoms: _406  and  _408
REMARK  170  A    between atoms: _408  and  _409
REMARK  171  A    between atoms: _408  and  _411
REMARK  172  A    between atoms: _411  and  _412
REMARK  173  A    between atoms: _412  and  _413
REMARK  174  A    between atoms: _418  and  _420
REMARK  175  A    between atoms: _420  and  _421
REMARK  176  A    between atoms: _420  and  _423
REMARK  177  A    between atoms: _423  and  _424
REMARK  178  A    between atoms: _427  and  _429
REMARK  179  A    between atoms: _429  and  _430
REMARK  180  A    between atoms: _429  and  _432
REMARK  181  A    between atoms: _432  and  _433
REMARK  182  A    between atoms: _438  and  _439
REMARK  183  A    between atoms: _441  and  _443
REMARK  184  A    between atoms: _443  and  _444
REMARK  185  A    between atoms: _443  and  _446
REMARK  186  A    between atoms: _446  and  _447
REMARK  187  A    between atoms: _447  and  _448
REMARK  188  A    between atoms: _453  and  _455
REMARK  189  A    between atoms: _455  and  _456
REMARK  190  A    between atoms: _455  and  _458
REMARK  191  A    between atoms: _458  and  _459
REMARK  192  A    between atoms: _464  and  _466
REMARK  193  A    between atoms: _466  and  _467
REMARK  194  A    between atoms: _466  and  _469
REMARK  195  A    between atoms: _469  and  _470
REMARK  196  A    between atoms: _473  and  _475
REMARK  197  A    between atoms: _475  and  _476
REMARK  198  A    between atoms: _475  and  _478
REMARK  199  A    between atoms: _478  and  _479
REMARK  200  A    between atoms: _489  and  _491
REMARK  201  A    between atoms: _491  and  _492
REMARK  202  A    between atoms: _491  and  _494
REMARK  203  A    between atoms: _494  and  _495
REMARK  204  A    between atoms: _495  and  _496
REMARK  205  A    between atoms: _501  and  _503
REMARK  206  A    between atoms: _503  and  _504
REMARK  207  A    between atoms: _503  and  _506
REMARK  208  A    between atoms: _506  and  _507
REMARK  209  A    between atoms: _509  and  _511
REMARK  210  A    between atoms: _511  and  _512
REMARK  211  A    between atoms: _511  and  _514
REMARK  212  A    between atoms: _514  and  _515
REMARK  213  A    between atoms: _518  and  _520
REMARK  214  A    between atoms: _520  and  _521
REMARK  215  A    between atoms: _520  and  _523
REMARK  216  A    between atoms: _523  and  _524
REMARK  217  A    between atoms: _527  and  _529
REMARK  218  A    between atoms: _529  and  _530
REMARK  219  A    between atoms: _529  and  _532
REMARK  220  A    between atoms: _532  and  _533
REMARK  221  A    between atoms: _536  and  _538
REMARK  222  A    between atoms: _538  and  _539
REMARK  223  A    between atoms: _538  and  _541
REMARK  224  A    between atoms: _541  and  _542
REMARK  225  A    between atoms: _545  and  _547
REMARK  226  A    between atoms: _547  and  _548
REMARK  227  A    between atoms: _550  and  _552
REMARK  228  A    between atoms: _552  and  _553
REMARK  229  A    between atoms: _552  and  _555
REMARK  230  A    between atoms: _555  and  _556
REMARK                            x       y       z     vdW  Elec       q    Type
REMARK                         _______ _______ _______ _____ _____    ______ ____
ROOT
ATOM      1  CG  TRP A   1      19.528  10.934  60.886  0.00  0.00    -0.002 A 
ATOM      2  CD1 TRP A   1      19.728  12.202  61.355  0.00  0.00    +0.068 A 
ATOM      3  NE1 TRP A   1      19.318  13.137  60.423  0.00  0.00    -0.352 N 
ATOM      4  HE1 TRP A   1      19.349  14.170  60.541  0.00  0.00    +0.166 HD
ATOM      5  CE2 TRP A   1      18.861  12.463  59.311  0.00  0.00    +0.056 A 
ATOM      6  CZ2 TRP A   1      18.339  12.959  58.111  0.00  0.00    +0.017 A 
ATOM      7  CH2 TRP A   1      17.921  12.044  57.160  0.00  0.00    +0.001 A 
ATOM      8  CZ3 TRP A   1      18.003  10.651  57.382  0.00  0.00    +0.000 A 
ATOM      9  CE3 TRP A   1      18.552  10.150  58.579  0.00  0.00    +0.001 A 
ATOM     10  CD2 TRP A   1      18.959  11.072  59.578  0.00  0.00    +0.013 A 
ENDROOT
BRANCH   1  11
ATOM     11  CB  TRP A   1      19.814   9.644  61.610  0.00  0.00    +0.053 C 
BRANCH  11  12
ATOM     12  CA  TRP A   1      21.173   9.012  61.334  0.00  0.00    +0.137 C 
BRANCH  12  13
ATOM     13  N   TRP A   1      22.282   9.873  61.732  0.00  0.00    -0.239 NA
ATOM     14  H   TRP A   1      22.530  10.709  61.166  0.00  0.00    +0.142 HD
ENDBRANCH  12  13
BRANCH  12  15
ATOM     15  C   TRP A   1      21.299   8.638  59.879  0.00  0.00    +0.224 C 
ATOM     16  O   TRP A   1      21.850   9.404  59.094  0.00  0.00    -0.287 OA
ENDBRANCH  12  15
ENDBRANCH  11  12
ENDBRANCH   1  11
TORSDOF 4
REMARK  Name = ../refined-set-2016/3fv3/3fv3_pocket.pdb
REMARK  230 active torsions:
REMARK  status: ('A' for Active; 'I' for Inactive)
REMARK    1  A    between atoms: _1  and  _3
REMARK    2  A    between atoms: _3  and  _4
REMARK    3  A    between atoms: _7  and  _8
REMARK    4  A    between atoms: _13  and  _15
REMARK    5  A    between atoms: _15  and  _16
REMARK    6  A    between atoms: _15  and  _18
REMARK    7  A    between atoms: _18  and  _19
REMARK    8  A    between atoms: _21  and  _23
REMARK    9  A    between atoms: _23  and  _24
REMARK   10  A    between atoms: _23  and  _26
REMARK   11  A    between atoms: _26  and  _27
REMARK   12  A    between atoms: _32  and  _33
REMARK   13  A    between atoms: _35  and  _37
REMARK   14  A    between atoms: _37  and  _38
REMARK   15  A    between atoms: _37  and  _40
REMARK   16  A    between atoms: _40  and  _41
REMARK   17  A    between atoms: _44  and  _46
REMARK   18  A    between atoms: _46  and  _47
REMARK   19  A    between atoms: _46  and  _49
REMARK   20  A    between atoms: _49  and  _50
REMARK   21  A    between atoms: _53  and  _55
REMARK   22  A    between atoms: _55  and  _56
REMARK   23  A    between atoms: _55  and  _58
REMARK   24  A    between atoms: _58  and  _59
REMARK   25  A    between atoms: _62  and  _64
REMARK   26  A    between atoms: _64  and  _65
REMARK   27  A    between atoms: _64  and  _67
REMARK   28  A    between atoms: _67  and  _68
REMARK   29  A    between atoms: _71  and  _73
REMARK   30  A    between atoms: _73  and  _74
REMARK   31  A    between atoms: _76  and  _78
REMARK   32  A    between atoms: _78  and  _79
REMARK   33  A    between atoms: _78  and  _81
REMARK   34  A    between atoms: _81  and  _82
REMARK   35  A    between atoms: _84  and  _86
REMARK   36  A    between atoms: _86  and  _87
REMARK   37  A    between atoms: _86  and  _89
REMARK   38  A    between atoms: _89  and  _90
REMARK   39  A    between atoms: _92  and  _94
REMARK   40  A    between atoms: _94  and  _95
REMARK   41  A    between atoms: _94  and  _97
REMARK   42  A    between atoms: _97  and  _98
REMARK   43  A    between atoms: _101  and  _103
REMARK   44  A    between atoms: _103  and  _104
REMARK   45  A    between atoms: _103  and  _106
REMARK   46  A    between atoms: _106  and  _107
REMARK   47  A    between atoms: _117  and  _119
REMARK   48  A    between atoms: _119  and  _120
REMARK   49  A    between atoms: _119  and  _122
REMARK   50  A    between atoms: _122  and  _123
REMARK   51  A    between atoms: _126  and  _128
REMARK   52  A    between atoms: _128  and  _129
REMARK   53  A    between atoms: _128  and  _131
REMARK   54  A    between atoms: _131  and  _132
REMARK   55  A    between atoms: _132  and  _133
REMARK   56  A    between atoms: _133  and  _134
REMARK   57  A    between atoms: _143  and  _145
REMARK   58  A    between atoms: _145  and  _146
REMARK   59  A    between atoms: _145  and  _148
REMARK   60  A    between atoms: _148  and  _149
REMARK   61  A    between atoms: _154  and  _155
REMARK   62  A    between atoms: _157  and  _159
REMARK   63  A    between atoms: _159  and  _160
REMARK   64  A    between atoms: _162  and  _164
REMARK   65  A    between atoms: _164  and  _165
REMARK   66  A    between atoms: _164  and  _167
REMARK   67  A    between atoms: _167  and  _168
REMARK   68  A    between atoms: _171  and  _173
REMARK   69  A    between atoms: _173  and  _174
REMARK   70  A    between atoms: _176  and  _178
REMARK   71  A    between atoms: _178  and  _179
REMARK   72  A    between atoms: _178  and  _181
REMARK   73  A    between atoms: _181  and  _182
REMARK   74  A    between atoms: _184  and  _186
REMARK   75  A    between atoms: _186  and  _187
REMARK   76  A    between atoms: _186  and  _189
REMARK   77  A    between atoms: _189  and  _190
REMARK   78  A    between atoms: _193  and  _195
REMARK   79  A    between atoms: _195  and  _196
REMARK   80  A    between atoms: _195  and  _198
REMARK   81  A    between atoms: _198  and  _199
REMARK   82  A    between atoms: _201  and  _203
REMARK   83  A    between atoms: _203  and  _204
REMARK   84  A    between atoms: _203  and  _206
REMARK   85  A    between atoms: _209  and  _211
REMARK   86  A    between atoms: _211  and  _212
REMARK   87  A    between atoms: _211  and  _214
REMARK   88  A    between atoms: _214  and  _215
REMARK   89  A    between atoms: _218  and  _220
REMARK   90  A    between atoms: _220  and  _221
REMARK   91  A    between atoms: _220  and  _223
REMARK   92  A    between atoms: _223  and  _224
REMARK   93  A    between atoms: _224  and  _225
REMARK   94  A    between atoms: _230  and  _232
REMARK   95  A    between atoms: _232  and  _233
REMARK   96  A    between atoms: _235  and  _237
REMARK   97  A    between atoms: _237  and  _238
REMARK   98  A    between atoms: _237  and  _240
REMARK   99  A    between atoms: _240  and  _241
REMARK  100  A    between atoms: _244  and  _246
REMARK  101  A    between atoms: _246  and  _247
REMARK  102  A    between atoms: _246  and  _249
REMARK  103  A    between atoms: _249  and  _250
REMARK  104  A    between atoms: _253  and  _255
REMARK  105  A    between atoms: _255  and  _256
REMARK  106  A    between atoms: _255  and  _258
REMARK  107  A    between atoms: _258  and  _259
REMARK  108  A    between atoms: _262  and  _264
REMARK  109  A    between atoms: _264  and  _265
REMARK  110  A    between atoms: _264  and  _267
REMARK  111  A    between atoms: _267  and  _268
REMARK  112  A    between atoms: _273  and  _275
REMARK  113  A    between atoms: _275  and  _276
REMARK  114  A    between atoms: _275  and  _278
REMARK  115  A    between atoms: _278  and  _279
REMARK  116  A    between atoms: _279  and  _280
REMARK  117  A    between atoms: _283  and  _285
REMARK  118  A    between atoms: _285  and  _286
REMARK  119  A    between atoms: _289  and  _291
REMARK  120  A    between atoms: _291  and  _292
REMARK  121  A    between atoms: _291  and  _294
REMARK  122  A    between atoms: _294  and  _295
REMARK  123  A    between atoms: _295  and  _296
REMARK  124  A    between atoms: _301  and  _303
REMARK  125  A    between atoms: _303  and  _304
REMARK  126  A    between atoms: _307  and  _309
REMARK  127  A    between atoms: _309  and  _310
REMARK  128  A    between atoms: _309  and  _312
REMARK  129  A    between atoms: _312  and  _313
REMARK  130  A    between atoms: _316  and  _318
REMARK  131  A    between atoms: _318  and  _319
REMARK  132  A    between atoms: _318  and  _321
REMARK  133  A    between atoms: _321  and  _322
REMARK  134  A    between atoms: _325  and  _327
REMARK  135  A    between atoms: _327  and  _328
REMARK  136  A    between atoms: _327  and  _330
REMARK  137  A    between atoms: _330  and  _331
REMARK  138  A    between atoms: _334  and  _336
REMARK  139  A    between atoms: _336  and  _337
REMARK  140  A    between atoms: _336  and  _339
REMARK  141  A    between atoms: _339  and  _340
REMARK  142  A    between atoms: _343  and  _345
REMARK  143  A    between atoms: _345  and  _346
REMARK  144  A    between atoms: _345  and  _348
REMARK  145  A    between atoms: _348  and  _349
REMARK  146  A    between atoms: _351  and  _353
REMARK  147  A    between atoms: _353  and  _354
REMARK  148  A    between atoms: _356  and  _358
REMARK  149  A    between atoms: _358  and  _359
REMARK  150  A    between atoms: _358  and  _361
REMARK  151  A    between atoms: _361  and  _362
REMARK  152  A    between atoms: _365  and  _367
REMARK  153  A    between atoms: _367  and  _368
REMARK  154  A    between atoms: _367  and  _370
REMARK  155  A    between atoms: _370  and  _371
REMARK  156  A    between atoms: _374  and  _376
REMARK  157  A    between atoms: _376  and  _377
REMARK  158  A    between atoms: _376  and  _379
REMARK  159  A    between atoms: _379  and  _380
REMARK  160  A    between atoms: _383  and  _385
REMARK  161  A    between atoms: _385  and  _386
REMARK  162  A    between atoms: _385  and  _388
REMARK  163  A    between atoms: _388  and  _389
REMARK  164  A    between atoms: _392  and  _394
REMARK  165  A    between atoms: _394  and  _395
REMARK  166  A    between atoms: _394  and  _397
REMARK  167  A    between atoms: _397  and  _398
REMARK  168  A    between atoms: _403  and  _404
REMARK  169  A    between atoms: _406  and  _408
REMARK  170  A    between atoms: _408  and  _409
REMARK  171  A    between atoms: _408  and  _411
REMARK  172  A    between atoms: _411  and  _412
REMARK  173  A    between atoms: _412  and  _413
REMARK  174  A    between atoms: _418  and  _420
REMARK  175  A    between atoms: _420  and  _421
REMARK  176  A    between atoms: _420  and  _423
REMARK  177  A    between atoms: _423  and  _424
REMARK  178  A    between atoms: _427  and  _429
REMARK  179  A    between atoms: _429  and  _430
REMARK  180  A    between atoms: _429  and  _432
REMARK  181  A    between atoms: _432  and  _433
REMARK  182  A    between atoms: _438  and  _439
REMARK  183  A    between atoms: _441  and  _443
REMARK  184  A    between atoms: _443  and  _444
REMARK  185  A    between atoms: _443  and  _446
REMARK  186  A    between atoms: _446  and  _447
REMARK  187  A    between atoms: _447  and  _448
REMARK  188  A    between atoms: _453  and  _455
REMARK  189  A    between atoms: _455  and  _456
REMARK  190  A    between atoms: _455  and  _458
REMARK  191  A    between atoms: _458  and  _459
REMARK  192  A    between atoms: _464  and  _466
REMARK  193  A    between atoms: _466  and  _467
REMARK  194  A    between atoms: _466  and  _469
REMARK  195  A    between atoms: _469  and  _470
REMARK  196  A    between atoms: _473  and  _475
REMARK  197  A    between atoms: _475  and  _476
REMARK  198  A    between atoms: _475  and  _478
REMARK  199  A    between atoms: _478  and  _479
REMARK  200  A    between atoms: _489  and  _491
REMARK  201  A    between atoms: _491  and  _492
REMARK  202  A    between atoms: _491  and  _494
REMARK  203  A    between atoms: _494  and  _495
REMARK  204  A    between atoms: _495  and  _496
REMARK  205  A    between atoms: _501  and  _503
REMARK  206  A    between atoms: _503  and  _504
REMARK  207  A    between atoms: _503  and  _506
REMARK  208  A    between atoms: _506  and  _507
REMARK  209  A    between atoms: _509  and  _511
REMARK  210  A    between atoms: _511  and  _512
REMARK  211  A    between atoms: _511  and  _514
REMARK  212  A    between atoms: _514  and  _515
REMARK  213  A    between atoms: _518  and  _520
REMARK  214  A    between atoms: _520  and  _521
REMARK  215  A    between atoms: _520  and  _523
REMARK  216  A    between atoms: _523  and  _524
REMARK  217  A    between atoms: _527  and  _529
REMARK  218  A    between atoms: _529  and  _530
REMARK  219  A    between atoms: _529  and  _532
REMARK  220  A    between atoms: _532  and  _533
REMARK  221  A    between atoms: _536  and  _538
REMARK  222  A    between atoms: _538  and  _539
REMARK  223  A    between atoms: _538  and  _541
REMARK  224  A    between atoms: _541  and  _542
REMARK  225  A    between atoms: _545  and  _547
REMARK  226  A    between atoms: _547  and  _548
REMARK  227  A    between atoms: _550  and  _552
REMARK  228  A    between atoms: _552  and  _553
REMARK  229  A    between atoms: _552  and  _555
REMARK  230  A    between atoms: _555  and  _556
REMARK                            x       y       z     vdW  Elec       q    Type
REMARK                         _______ _______ _______ _____ _____    ______ ____
ROOT
ATOM      1  CA  TYR A   3      16.231  21.240  61.762  0.00  0.00    +0.153 C 
ENDROOT
BRANCH   1   4
ATOM      2  C   ARG A   2      14.817  20.014  63.305  0.00  0.00    +0.241 C 
ATOM      3  O   ARG A   2      15.351  20.538  64.289  0.00  0.00    -0.273 OA
ATOM      4  N   TYR A   3      15.129  20.336  62.059  0.00  0.00    -0.297 N 
ATOM      5  H   TYR A   3      14.575  19.935  61.276  0.00  0.00    +0.150 HD
BRANCH   2   6
ATOM      6  CA  ARG A   2      13.698  18.998  63.473  0.00  0.00    +0.149 C 
BRANCH   6   8
ATOM      7  C   ILE A   1      14.043  16.669  64.101  0.00  0.00    +0.238 C 
ATOM      8  N   ARG A   2      14.168  17.971  64.393  0.00  0.00    -0.297 N 
ATOM      9  H   ARG A   2      14.608  18.253  65.292  0.00  0.00    +0.150 HD
ATOM     10  O   ILE A   1      13.395  16.252  63.132  0.00  0.00    -0.274 OA
BRANCH   7  11
ATOM     11  CA  ILE A   1      14.675  15.685  65.082  0.00  0.00    +0.145 C 
BRANCH  11  12
ATOM     12  N   ILE A   1      13.863  14.461  65.133  0.00  0.00    -0.238 NA
ATOM     13  H   ILE A   1      13.378  14.127  64.276  0.00  0.00    +0.142 HD
ENDBRANCH  11  12
BRANCH  11  14
ATOM     14  CB  ILE A   1      16.168  15.386  64.739  0.00  0.00    +0.025 C 
ATOM     15  CG2 ILE A   1      16.313  14.811  63.292  0.00  0.00    +0.002 C 
BRANCH  14  16
ATOM     16  CG1 ILE A   1      17.055  16.636  64.921  0.00  0.00    +0.002 C 
ATOM     17  CD1 ILE A   1      18.557  16.322  64.905  0.00  0.00    +0.000 C 
ENDBRANCH  14  16
ENDBRANCH  11  14
ENDBRANCH   7  11
ENDBRANCH   6   8
BRANCH   6  18
ATOM     18  CB  ARG A   2      12.413  19.681  63.979  0.00  0.00    +0.033 C 
BRANCH  18  19
ATOM     19  CG  ARG A   2      11.934  20.841  63.058  0.00  0.00    +0.045 C 
BRANCH  19  20
ATOM     20  CD  ARG A   2      10.655  21.569  63.543  0.00  0.00    +0.174 C 
BRANCH  20  21
ATOM     21  NE  ARG A   2      10.475  21.478  64.989  0.00  0.00    -0.265 N 
ATOM     22  CZ  ARG A   2      11.132  22.198  65.890  0.00  0.00    +0.342 C 
ATOM     23  NH2 ARG A   2      10.894  22.006  67.177  0.00  0.00    -0.292 N 
ATOM     24 HH21 ARG A   2      11.404  22.566  67.889  0.00  0.00    +0.255 HD
ATOM     25 HH22 ARG A   2      10.196  21.295  67.476  0.00  0.00    +0.255 HD
ATOM     26  NH1 ARG A   2      12.039  23.080  65.518  0.00  0.00    -0.292 N 
ATOM     27 HH11 ARG A   2      12.547  23.638  66.234  0.00  0.00    +0.255 HD
ATOM     28 HH12 ARG A   2      12.247  23.218  64.508  0.00  0.00    +0.255 HD
ATOM     29  HE  ARG A   2       9.776  20.794  65.342  0.00  0.00    +0.259 HD
ENDBRANCH  20  21
ENDBRANCH  19  20
ENDBRANCH  18  19
ENDBRANCH   6  18
ENDBRANCH   2   6
ENDBRANCH   1   4
BRANCH   1  30
ATOM     30  C   TYR A   3      15.762  22.681  61.530  0.00  0.00    +0.241 C 
ATOM     31  N   GLY A   4      16.729  23.604  61.495  0.00  0.00    -0.295 N 
ATOM     32  H   GLY A   4      17.716  23.277  61.525  0.00  0.00    +0.150 HD
ATOM     33  O   TYR A   3      14.554  22.932  61.349  0.00  0.00    -0.273 OA
BRANCH  31  34
ATOM     34  CA  GLY A   4      16.487  25.037  61.417  0.00  0.00    +0.176 C 
BRANCH  34  35
ATOM     35  C   GLY A   4      15.655  25.434  60.221  0.00  0.00    +0.243 C 
ATOM     36  O   GLY A   4      14.834  26.361  60.306  0.00  0.00    -0.273 OA
ATOM     37  N   ASP A   5      15.853  24.721  59.109  0.00  0.00    -0.296 N 
ATOM     38  H   ASP A   5      16.555  23.954  59.117  0.00  0.00    +0.150 HD
BRANCH  37  39
ATOM     39  CA  ASP A   5      15.106  24.993  57.879  0.00  0.00    +0.160 C 
BRANCH  39  40
ATOM     40  C   ASP A   5      13.703  24.364  57.868  0.00  0.00    +0.241 C 
ATOM     41  N   GLY A   6      13.370  23.614  58.923  0.00  0.00    -0.295 N 
ATOM     42  H   GLY A   6      14.083  23.443  59.661  0.00  0.00    +0.150 HD
ATOM     43  O   ASP A   5      12.945  24.558  56.903  0.00  0.00    -0.273 OA
BRANCH  41  44
ATOM     44  CA  GLY A   6      12.031  23.021  59.079  0.00  0.00    +0.176 C 
BRANCH  44  45
ATOM     45  C   GLY A   6      11.939  21.561  58.687  0.00  0.00    +0.243 C 
ATOM     46  O   GLY A   6      10.909  20.917  58.908  0.00  0.00    -0.273 OA
ATOM     47  N   SER A   7      12.998  21.024  58.083  0.00  0.00    -0.295 N 
ATOM     48  H   SER A   7      13.836  21.609  57.890  0.00  0.00    +0.150 HD
BRANCH  47  49
ATOM     49  CA  SER A   7      12.988  19.614  57.689  0.00  0.00    +0.178 C 
BRANCH  49  50
ATOM     50  C   SER A   7      13.127  18.737  58.943  0.00  0.00    +0.243 C 
ATOM     51  O   SER A   7      13.602  19.189  59.988  0.00  0.00    -0.273 OA
ATOM     52  N   THR A   8      12.690  17.491  58.834  0.00  0.00    -0.296 N 
ATOM     53  H   THR A   8      12.424  17.130  57.896  0.00  0.00    +0.150 HD
BRANCH  52  54
ATOM     54  CA  THR A   8      12.571  16.612  59.990  0.00  0.00    +0.164 C 
BRANCH  54  55
ATOM     55  C   THR A   8      12.950  15.184  59.610  0.00  0.00    +0.229 C 
ATOM     56  O   THR A   8      12.933  14.826  58.426  0.00  0.00    -0.286 OA
ENDBRANCH  54  55
BRANCH  54  57
ATOM     57  CB  THR A   8      11.111  16.589  60.560  0.00  0.00    +0.136 C 
ATOM     58  CG2 THR A   8      10.618  17.981  60.980  0.00  0.00    +0.034 C 
BRANCH  57  59
ATOM     59  OG1 THR A   8      10.218  16.061  59.573  0.00  0.00    -0.382 OA
ATOM     60  HG1 THR A   8      10.495  15.140  59.338  0.00  0.00    +0.210 HD
ENDBRANCH  57  59
ENDBRANCH  54  57
ENDBRANCH  52  54
ENDBRANCH  49  50
BRANCH  49  61
ATOM     61  CB  SER A   7      14.082  19.310  56.650  0.00  0.00    +0.166 C 
BRANCH  61  62
ATOM     62  OG  SER A   7      15.378  19.620  57.137  0.00  0.00    -0.380 OA
ATOM     63  H   SER A   7      15.423  20.583  57.362  0.00  0.00    +0.211 HD
ENDBRANCH  61  62
ENDBRANCH  49  61
ENDBRANCH  47  49
ENDBRANCH  44  45
ENDBRANCH  41  44
ENDBRANCH  39  40
BRANCH  39  64
ATOM     64  CB  ASP A   5      15.911  24.557  56.637  0.00  0.00    +0.143 C 
BRANCH  64  65
ATOM     65  CG  ASP A   5      16.263  23.062  56.620  0.00  0.00    +0.367 C 
ATOM     66  OD2 ASP A   5      15.603  22.228  57.267  0.00  0.00    -0.246 OA
ATOM     67  OD1 ASP A   5      17.227  22.689  55.920  0.00  0.00    -0.246 OA
ENDBRANCH  64  65
ENDBRANCH  39  64
ENDBRANCH  37  39
ENDBRANCH  34  35
ENDBRANCH  31  34
ENDBRANCH   1  30
BRANCH   1  68
ATOM     68  CB  TYR A   3      17.002  20.705  60.535  0.00  0.00    +0.055 C 
BRANCH  68  69
ATOM     69  CG  TYR A   3      17.688  19.376  60.818  0.00  0.00    -0.020 A 
ATOM     70  CD2 TYR A   3      18.864  19.302  61.600  0.00  0.00    -0.001 A 
ATOM     71  CE2 TYR A   3      19.471  18.042  61.864  0.00  0.00    +0.036 A 
ATOM     72  CZ  TYR A   3      18.912  16.884  61.319  0.00  0.00    +0.134 A 
ATOM     73  CE1 TYR A   3      17.755  16.953  60.568  0.00  0.00    +0.036 A 
ATOM     74  CD1 TYR A   3      17.157  18.181  60.322  0.00  0.00    -0.001 A 
BRANCH  72  75
ATOM     75  OH  TYR A   3      19.485  15.638  61.547  0.00  0.00    -0.506 OA
ATOM     76  HH  TYR A   3      20.302  15.747  62.096  0.00  0.00    +0.292 HD
ENDBRANCH  72  75
ENDBRANCH  68  69
ENDBRANCH   1  68
TORSDOF 31
REMARK  Name = ../refined-set-2016/3fv3/3fv3_pocket.pdb
REMARK  230 active torsions:
REMARK  status: ('A' for Active; 'I' for Inactive)
REMARK    1  A    between atoms: _1  and  _3
REMARK    2  A    between atoms: _3  and  _4
REMARK    3  A    between atoms: _7  and  _8
REMARK    4  A    between atoms: _13  and  _15
REMARK    5  A    between atoms: _15  and  _16
REMARK    6  A    between atoms: _15  and  _18
REMARK    7  A    between atoms: _18  and  _19
REMARK    8  A    between atoms: _21  and  _23
REMARK    9  A    between atoms: _23  and  _24
REMARK   10  A    between atoms: _23  and  _26
REMARK   11  A    between atoms: _26  and  _27
REMARK   12  A    between atoms: _32  and  _33
REMARK   13  A    between atoms: _35  and  _37
REMARK   14  A    between atoms: _37  and  _38
REMARK   15  A    between atoms: _37  and  _40
REMARK   16  A    between atoms: _40  and  _41
REMARK   17  A    between atoms: _44  and  _46
REMARK   18  A    between atoms: _46  and  _47
REMARK   19  A    between atoms: _46  and  _49
REMARK   20  A    between atoms: _49  and  _50
REMARK   21  A    between atoms: _53  and  _55
REMARK   22  A    between atoms: _55  and  _56
REMARK   23  A    between atoms: _55  and  _58
REMARK   24  A    between atoms: _58  and  _59
REMARK   25  A    between atoms: _62  and  _64
REMARK   26  A    between atoms: _64  and  _65
REMARK   27  A    between atoms: _64  and  _67
REMARK   28  A    between atoms: _67  and  _68
REMARK   29  A    between atoms: _71  and  _73
REMARK   30  A    between atoms: _73  and  _74
REMARK   31  A    between atoms: _76  and  _78
REMARK   32  A    between atoms: _78  and  _79
REMARK   33  A    between atoms: _78  and  _81
REMARK   34  A    between atoms: _81  and  _82
REMARK   35  A    between atoms: _84  and  _86
REMARK   36  A    between atoms: _86  and  _87
REMARK   37  A    between atoms: _86  and  _89
REMARK   38  A    between atoms: _89  and  _90
REMARK   39  A    between atoms: _92  and  _94
REMARK   40  A    between atoms: _94  and  _95
REMARK   41  A    between atoms: _94  and  _97
REMARK   42  A    between atoms: _97  and  _98
REMARK   43  A    between atoms: _101  and  _103
REMARK   44  A    between atoms: _103  and  _104
REMARK   45  A    between atoms: _103  and  _106
REMARK   46  A    between atoms: _106  and  _107
REMARK   47  A    between atoms: _117  and  _119
REMARK   48  A    between atoms: _119  and  _120
REMARK   49  A    between atoms: _119  and  _122
REMARK   50  A    between atoms: _122  and  _123
REMARK   51  A    between atoms: _126  and  _128
REMARK   52  A    between atoms: _128  and  _129
REMARK   53  A    between atoms: _128  and  _131
REMARK   54  A    between atoms: _131  and  _132
REMARK   55  A    between atoms: _132  and  _133
REMARK   56  A    between atoms: _133  and  _134
REMARK   57  A    between atoms: _143  and  _145
REMARK   58  A    between atoms: _145  and  _146
REMARK   59  A    between atoms: _145  and  _148
REMARK   60  A    between atoms: _148  and  _149
REMARK   61  A    between atoms: _154  and  _155
REMARK   62  A    between atoms: _157  and  _159
REMARK   63  A    between atoms: _159  and  _160
REMARK   64  A    between atoms: _162  and  _164
REMARK   65  A    between atoms: _164  and  _165
REMARK   66  A    between atoms: _164  and  _167
REMARK   67  A    between atoms: _167  and  _168
REMARK   68  A    between atoms: _171  and  _173
REMARK   69  A    between atoms: _173  and  _174
REMARK   70  A    between atoms: _176  and  _178
REMARK   71  A    between atoms: _178  and  _179
REMARK   72  A    between atoms: _178  and  _181
REMARK   73  A    between atoms: _181  and  _182
REMARK   74  A    between atoms: _184  and  _186
REMARK   75  A    between atoms: _186  and  _187
REMARK   76  A    between atoms: _186  and  _189
REMARK   77  A    between atoms: _189  and  _190
REMARK   78  A    between atoms: _193  and  _195
REMARK   79  A    between atoms: _195  and  _196
REMARK   80  A    between atoms: _195  and  _198
REMARK   81  A    between atoms: _198  and  _199
REMARK   82  A    between atoms: _201  and  _203
REMARK   83  A    between atoms: _203  and  _204
REMARK   84  A    between atoms: _203  and  _206
REMARK   85  A    between atoms: _209  and  _211
REMARK   86  A    between atoms: _211  and  _212
REMARK   87  A    between atoms: _211  and  _214
REMARK   88  A    between atoms: _214  and  _215
REMARK   89  A    between atoms: _218  and  _220
REMARK   90  A    between atoms: _220  and  _221
REMARK   91  A    between atoms: _220  and  _223
REMARK   92  A    between atoms: _223  and  _224
REMARK   93  A    between atoms: _224  and  _225
REMARK   94  A    between atoms: _230  and  _232
REMARK   95  A    between atoms: _232  and  _233
REMARK   96  A    between atoms: _235  and  _237
REMARK   97  A    between atoms: _237  and  _238
REMARK   98  A    between atoms: _237  and  _240
REMARK   99  A    between atoms: _240  and  _241
REMARK  100  A    between atoms: _244  and  _246
REMARK  101  A    between atoms: _246  and  _247
REMARK  102  A    between atoms: _246  and  _249
REMARK  103  A    between atoms: _249  and  _250
REMARK  104  A    between atoms: _253  and  _255
REMARK  105  A    between atoms: _255  and  _256
REMARK  106  A    between atoms: _255  and  _258
REMARK  107  A    between atoms: _258  and  _259
REMARK  108  A    between atoms: _262  and  _264
REMARK  109  A    between atoms: _264  and  _265
REMARK  110  A    between atoms: _264  and  _267
REMARK  111  A    between atoms: _267  and  _268
REMARK  112  A    between atoms: _273  and  _275
REMARK  113  A    between atoms: _275  and  _276
REMARK  114  A    between atoms: _275  and  _278
REMARK  115  A    between atoms: _278  and  _279
REMARK  116  A    between atoms: _279  and  _280
REMARK  117  A    between atoms: _283  and  _285
REMARK  118  A    between atoms: _285  and  _286
REMARK  119  A    between atoms: _289  and  _291
REMARK  120  A    between atoms: _291  and  _292
REMARK  121  A    between atoms: _291  and  _294
REMARK  122  A    between atoms: _294  and  _295
REMARK  123  A    between atoms: _295  and  _296
REMARK  124  A    between atoms: _301  and  _303
REMARK  125  A    between atoms: _303  and  _304
REMARK  126  A    between atoms: _307  and  _309
REMARK  127  A    between atoms: _309  and  _310
REMARK  128  A    between atoms: _309  and  _312
REMARK  129  A    between atoms: _312  and  _313
REMARK  130  A    between atoms: _316  and  _318
REMARK  131  A    between atoms: _318  and  _319
REMARK  132  A    between atoms: _318  and  _321
REMARK  133  A    between atoms: _321  and  _322
REMARK  134  A    between atoms: _325  and  _327
REMARK  135  A    between atoms: _327  and  _328
REMARK  136  A    between atoms: _327  and  _330
REMARK  137  A    between atoms: _330  and  _331
REMARK  138  A    between atoms: _334  and  _336
REMARK  139  A    between atoms: _336  and  _337
REMARK  140  A    between atoms: _336  and  _339
REMARK  141  A    between atoms: _339  and  _340
REMARK  142  A    between atoms: _343  and  _345
REMARK  143  A    between atoms: _345  and  _346
REMARK  144  A    between atoms: _345  and  _348
REMARK  145  A    between atoms: _348  and  _349
REMARK  146  A    between atoms: _351  and  _353
REMARK  147  A    between atoms: _353  and  _354
REMARK  148  A    between atoms: _356  and  _358
REMARK  149  A    between atoms: _358  and  _359
REMARK  150  A    between atoms: _358  and  _361
REMARK  151  A    between atoms: _361  and  _362
REMARK  152  A    between atoms: _365  and  _367
REMARK  153  A    between atoms: _367  and  _368
REMARK  154  A    between atoms: _367  and  _370
REMARK  155  A    between atoms: _370  and  _371
REMARK  156  A    between atoms: _374  and  _376
REMARK  157  A    between atoms: _376  and  _377
REMARK  158  A    between atoms: _376  and  _379
REMARK  159  A    between atoms: _379  and  _380
REMARK  160  A    between atoms: _383  and  _385
REMARK  161  A    between atoms: _385  and  _386
REMARK  162  A    between atoms: _385  and  _388
REMARK  163  A    between atoms: _388  and  _389
REMARK  164  A    between atoms: _392  and  _394
REMARK  165  A    between atoms: _394  and  _395
REMARK  166  A    between atoms: _394  and  _397
REMARK  167  A    between atoms: _397  and  _398
REMARK  168  A    between atoms: _403  and  _404
REMARK  169  A    between atoms: _406  and  _408
REMARK  170  A    between atoms: _408  and  _409
REMARK  171  A    between atoms: _408  and  _411
REMARK  172  A    between atoms: _411  and  _412
REMARK  173  A    between atoms: _412  and  _413
REMARK  174  A    between atoms: _418  and  _420
REMARK  175  A    between atoms: _420  and  _421
REMARK  176  A    between atoms: _420  and  _423
REMARK  177  A    between atoms: _423  and  _424
REMARK  178  A    between atoms: _427  and  _429
REMARK  179  A    between atoms: _429  and  _430
REMARK  180  A    between atoms: _429  and  _432
REMARK  181  A    between atoms: _432  and  _433
REMARK  182  A    between atoms: _438  and  _439
REMARK  183  A    between atoms: _441  and  _443
REMARK  184  A    between atoms: _443  and  _444
REMARK  185  A    between atoms: _443  and  _446
REMARK  186  A    between atoms: _446  and  _447
REMARK  187  A    between atoms: _447  and  _448
REMARK  188  A    between atoms: _453  and  _455
REMARK  189  A    between atoms: _455  and  _456
REMARK  190  A    between atoms: _455  and  _458
REMARK  191  A    between atoms: _458  and  _459
REMARK  192  A    between atoms: _464  and  _466
REMARK  193  A    between atoms: _466  and  _467
REMARK  194  A    between atoms: _466  and  _469
REMARK  195  A    between atoms: _469  and  _470
REMARK  196  A    between atoms: _473  and  _475
REMARK  197  A    between atoms: _475  and  _476
REMARK  198  A    between atoms: _475  and  _478
REMARK  199  A    between atoms: _478  and  _479
REMARK  200  A    between atoms: _489  and  _491
REMARK  201  A    between atoms: _491  and  _492
REMARK  202  A    between atoms: _491  and  _494
REMARK  203  A    between atoms: _494  and  _495
REMARK  204  A    between atoms: _495  and  _496
REMARK  205  A    between atoms: _501  and  _503
REMARK  206  A    between atoms: _503  and  _504
REMARK  207  A    between atoms: _503  and  _506
REMARK  208  A    between atoms: _506  and  _507
REMARK  209  A    between atoms: _509  and  _511
REMARK  210  A    between atoms: _511  and  _512
REMARK  211  A    between atoms: _511  and  _514
REMARK  212  A    between atoms: _514  and  _515
REMARK  213  A    between atoms: _518  and  _520
REMARK  214  A    between atoms: _520  and  _521
REMARK  215  A    between atoms: _520  and  _523
REMARK  216  A    between atoms: _523  and  _524
REMARK  217  A    between atoms: _527  and  _529
REMARK  218  A    between atoms: _529  and  _530
REMARK  219  A    between atoms: _529  and  _532
REMARK  220  A    between atoms: _532  and  _533
REMARK  221  A    between atoms: _536  and  _538
REMARK  222  A    between atoms: _538  and  _539
REMARK  223  A    between atoms: _538  and  _541
REMARK  224  A    between atoms: _541  and  _542
REMARK  225  A    between atoms: _545  and  _547
REMARK  226  A    between atoms: _547  and  _548
REMARK  227  A    between atoms: _550  and  _552
REMARK  228  A    between atoms: _552  and  _553
REMARK  229  A    between atoms: _552  and  _555
REMARK  230  A    between atoms: _555  and  _556
REMARK                            x       y       z     vdW  Elec       q    Type
REMARK                         _______ _______ _______ _____ _____    ______ ____
ROOT
ATOM      1  CA  GLN A   4      19.973  12.195  52.770  0.00  0.00    +0.149 C 
ENDROOT
BRANCH   1   2
ATOM      2  C   GLN A   4      20.241  12.176  54.264  0.00  0.00    +0.241 C 
ATOM      3  O   GLN A   4      19.857  13.126  54.968  0.00  0.00    -0.273 OA
ATOM      4  N   GLY A   5      20.917  11.126  54.727  0.00  0.00    -0.295 N 
ATOM      5  H   GLY A   5      21.143  10.345  54.079  0.00  0.00    +0.150 HD
BRANCH   4   6
ATOM      6  CA  GLY A   5      21.352  11.040  56.124  0.00  0.00    +0.176 C 
BRANCH   6   7
ATOM      7  C   GLY A   5      22.301  12.141  56.540  0.00  0.00    +0.243 C 
ATOM      8  N   ILE A   6      22.493  12.288  57.858  0.00  0.00    -0.297 N 
ATOM      9  H   ILE A   6      22.074  11.594  58.509  0.00  0.00    +0.150 HD
ATOM     10  O   GLY A   5      22.853  12.856  55.696  0.00  0.00    -0.273 OA
BRANCH   8  11
ATOM     11  CA  ILE A   6      23.276  13.397  58.410  0.00  0.00    +0.149 C 
BRANCH  11  12
ATOM     12  C   ILE A   6      24.166  12.852  59.504  0.00  0.00    +0.241 C 
ATOM     13  O   ILE A   6      23.688  12.137  60.406  0.00  0.00    -0.273 OA
ATOM     14  N   LEU A   7      25.455  13.166  59.409  0.00  0.00    -0.298 N 
ATOM     15  H   LEU A   7      25.794  13.672  58.566  0.00  0.00    +0.150 HD
BRANCH  14  16
ATOM     16  CA  LEU A   7      26.416  12.814  60.472  0.00  0.00    +0.137 C 
BRANCH  16  17
ATOM     17  C   LEU A   7      26.629  14.080  61.310  0.00  0.00    +0.227 C 
ATOM     18  O   LEU A   7      27.424  14.953  60.955  0.00  0.00    -0.286 OA
ENDBRANCH  16  17
BRANCH  16  19
ATOM     19  CB  LEU A   7      27.739  12.294  59.884  0.00  0.00    +0.028 C 
BRANCH  19  20
ATOM     20  CG  LEU A   7      28.963  12.115  60.798  0.00  0.00    +0.002 C 
ATOM     21  CD2 LEU A   7      28.630  11.353  62.104  0.00  0.00    +0.000 C 
ATOM     22  CD1 LEU A   7      30.017  11.349  60.007  0.00  0.00    +0.000 C 
ENDBRANCH  19  20
ENDBRANCH  16  19
ENDBRANCH  14  16
ENDBRANCH  11  12
BRANCH  11  23
ATOM     23  CB  ILE A   6      22.383  14.576  58.974  0.00  0.00    +0.027 C 
ATOM     24  CG2 ILE A   6      23.274  15.653  59.615  0.00  0.00    +0.002 C 
BRANCH  23  25
ATOM     25  CG1 ILE A   6      21.596  15.266  57.835  0.00  0.00    +0.002 C 
ATOM     26  CD1 ILE A   6      20.553  16.284  58.334  0.00  0.00    +0.000 C 
ENDBRANCH  23  25
ENDBRANCH  11  23
ENDBRANCH   8  11
ENDBRANCH   6   7
ENDBRANCH   4   6
ENDBRANCH   1   2
BRANCH   1  28
ATOM     27  C   ASP A   3      18.375  13.316  51.304  0.00  0.00    +0.241 C 
ATOM     28  N   GLN A   4      19.022  13.269  52.466  0.00  0.00    -0.297 N 
ATOM     29  H   GLN A   4      18.849  14.011  53.174  0.00  0.00    +0.150 HD
ATOM     30  O   ASP A   3      18.531  12.452  50.436  0.00  0.00    -0.273 OA
BRANCH  27  31
ATOM     31  CA  ASP A   3      17.474  14.529  51.060  0.00  0.00    +0.160 C 
BRANCH  31  34
ATOM     32  C   VAL A   2      16.225  14.717  53.183  0.00  0.00    +0.241 C 
ATOM     33  O   VAL A   2      15.801  13.554  53.114  0.00  0.00    -0.273 OA
ATOM     34  N   ASP A   3      17.068  15.232  52.282  0.00  0.00    -0.297 N 
ATOM     35  H   ASP A   3      17.456  16.181  52.457  0.00  0.00    +0.150 HD
BRANCH  32  36
ATOM     36  CA  VAL A   2      15.821  15.634  54.362  0.00  0.00    +0.148 C 
BRANCH  36  38
ATOM     37  C   SER A   1      13.393  15.837  54.139  0.00  0.00    +0.241 C 
ATOM     38  N   VAL A   2      14.448  15.301  54.756  0.00  0.00    -0.297 N 
ATOM     39  H   VAL A   2      14.293  14.630  55.536  0.00  0.00    +0.150 HD
ATOM     40  O   SER A   1      13.492  16.762  53.331  0.00  0.00    -0.274 OA
BRANCH  37  41
ATOM     41  CA  SER A   1      12.016  15.257  54.517  0.00  0.00    +0.174 C 
BRANCH  41  42
ATOM     42  N   SER A   1      12.155  14.270  55.603  0.00  0.00    -0.236 NA
ATOM     43  H   SER A   1      12.337  14.598  56.573  0.00  0.00    +0.142 HD
ENDBRANCH  41  42
BRANCH  41  44
ATOM     44  CB  SER A   1      11.020  16.351  54.893  0.00  0.00    +0.163 C 
BRANCH  44  45
ATOM     45  OG  SER A   1      11.521  17.158  55.960  0.00  0.00    -0.380 OA
ATOM     46  H   SER A   1      10.857  17.858  56.183  0.00  0.00    +0.211 HD
ENDBRANCH  44  45
ENDBRANCH  41  44
ENDBRANCH  37  41
ENDBRANCH  36  38
BRANCH  36  47
ATOM     47  CB  VAL A   2      16.798  15.428  55.527  0.00  0.00    +0.027 C 
ATOM     48  CG2 VAL A   2      16.271  16.112  56.862  0.00  0.00    +0.002 C 
ATOM     49  CG1 VAL A   2      18.202  15.923  55.166  0.00  0.00    +0.002 C 
ENDBRANCH  36  47
ENDBRANCH  32  36
ENDBRANCH  31  34
BRANCH  31  50
ATOM     50  CB  ASP A   3      18.220  15.502  50.127  0.00  0.00    +0.143 C 
BRANCH  50  51
ATOM     51  CG  ASP A   3      17.301  16.557  49.500  0.00  0.00    +0.367 C 
ATOM     52  OD2 ASP A   3      16.049  16.412  49.542  0.00  0.00    -0.246 OA
ATOM     53  OD1 ASP A   3      17.847  17.553  48.959  0.00  0.00    -0.246 OA
ENDBRANCH  50  51
ENDBRANCH  31  50
ENDBRANCH  27  31
ENDBRANCH   1  28
BRANCH   1  54
ATOM     54  CB  GLN A   4      21.295  12.427  52.036  0.00  0.00    +0.039 C 
BRANCH  54  55
ATOM     55  CG  GLN A   4      22.033  13.726  52.433  0.00  0.00    +0.087 C 
BRANCH  55  56
ATOM     56  CD  GLN A   4      23.125  14.083  51.427  0.00  0.00    +0.219 C 
ATOM     57  OE1 GLN A   4      24.009  13.266  51.111  0.00  0.00    -0.275 OA
ATOM     58  NE2 GLN A   4      23.066  15.280  50.916  0.00  0.00    -0.329 N 
ATOM     59 HE21 GLN A   4      22.311  15.933  51.207  0.00  0.00    +0.145 HD
ATOM     60 HE22 GLN A   4      23.774  15.583  50.217  0.00  0.00    +0.145 HD
ENDBRANCH  55  56
ENDBRANCH  54  55
ENDBRANCH   1  54
TORSDOF 26
REMARK  Name = ../refined-set-2016/3fv3/3fv3_pocket.pdb
REMARK  230 active torsions:
REMARK  status: ('A' for Active; 'I' for Inactive)
REMARK    1  A    between atoms: _1  and  _3
REMARK    2  A    between atoms: _3  and  _4
REMARK    3  A    between atoms: _7  and  _8
REMARK    4  A    between atoms: _13  and  _15
REMARK    5  A    between atoms: _15  and  _16
REMARK    6  A    between atoms: _15  and  _18
REMARK    7  A    between atoms: _18  and  _19
REMARK    8  A    between atoms: _21  and  _23
REMARK    9  A    between atoms: _23  and  _24
REMARK   10  A    between atoms: _23  and  _26
REMARK   11  A    between atoms: _26  and  _27
REMARK   12  A    between atoms: _32  and  _33
REMARK   13  A    between atoms: _35  and  _37
REMARK   14  A    between atoms: _37  and  _38
REMARK   15  A    between atoms: _37  and  _40
REMARK   16  A    between atoms: _40  and  _41
REMARK   17  A    between atoms: _44  and  _46
REMARK   18  A    between atoms: _46  and  _47
REMARK   19  A    between atoms: _46  and  _49
REMARK   20  A    between atoms: _49  and  _50
REMARK   21  A    between atoms: _53  and  _55
REMARK   22  A    between atoms: _55  and  _56
REMARK   23  A    between atoms: _55  and  _58
REMARK   24  A    between atoms: _58  and  _59
REMARK   25  A    between atoms: _62  and  _64
REMARK   26  A    between atoms: _64  and  _65
REMARK   27  A    between atoms: _64  and  _67
REMARK   28  A    between atoms: _67  and  _68
REMARK   29  A    between atoms: _71  and  _73
REMARK   30  A    between atoms: _73  and  _74
REMARK   31  A    between atoms: _76  and  _78
REMARK   32  A    between atoms: _78  and  _79
REMARK   33  A    between atoms: _78  and  _81
REMARK   34  A    between atoms: _81  and  _82
REMARK   35  A    between atoms: _84  and  _86
REMARK   36  A    between atoms: _86  and  _87
REMARK   37  A    between atoms: _86  and  _89
REMARK   38  A    between atoms: _89  and  _90
REMARK   39  A    between atoms: _92  and  _94
REMARK   40  A    between atoms: _94  and  _95
REMARK   41  A    between atoms: _94  and  _97
REMARK   42  A    between atoms: _97  and  _98
REMARK   43  A    between atoms: _101  and  _103
REMARK   44  A    between atoms: _103  and  _104
REMARK   45  A    between atoms: _103  and  _106
REMARK   46  A    between atoms: _106  and  _107
REMARK   47  A    between atoms: _117  and  _119
REMARK   48  A    between atoms: _119  and  _120
REMARK   49  A    between atoms: _119  and  _122
REMARK   50  A    between atoms: _122  and  _123
REMARK   51  A    between atoms: _126  and  _128
REMARK   52  A    between atoms: _128  and  _129
REMARK   53  A    between atoms: _128  and  _131
REMARK   54  A    between atoms: _131  and  _132
REMARK   55  A    between atoms: _132  and  _133
REMARK   56  A    between atoms: _133  and  _134
REMARK   57  A    between atoms: _143  and  _145
REMARK   58  A    between atoms: _145  and  _146
REMARK   59  A    between atoms: _145  and  _148
REMARK   60  A    between atoms: _148  and  _149
REMARK   61  A    between atoms: _154  and  _155
REMARK   62  A    between atoms: _157  and  _159
REMARK   63  A    between atoms: _159  and  _160
REMARK   64  A    between atoms: _162  and  _164
REMARK   65  A    between atoms: _164  and  _165
REMARK   66  A    between atoms: _164  and  _167
REMARK   67  A    between atoms: _167  and  _168
REMARK   68  A    between atoms: _171  and  _173
REMARK   69  A    between atoms: _173  and  _174
REMARK   70  A    between atoms: _176  and  _178
REMARK   71  A    between atoms: _178  and  _179
REMARK   72  A    between atoms: _178  and  _181
REMARK   73  A    between atoms: _181  and  _182
REMARK   74  A    between atoms: _184  and  _186
REMARK   75  A    between atoms: _186  and  _187
REMARK   76  A    between atoms: _186  and  _189
REMARK   77  A    between atoms: _189  and  _190
REMARK   78  A    between atoms: _193  and  _195
REMARK   79  A    between atoms: _195  and  _196
REMARK   80  A    between atoms: _195  and  _198
REMARK   81  A    between atoms: _198  and  _199
REMARK   82  A    between atoms: _201  and  _203
REMARK   83  A    between atoms: _203  and  _204
REMARK   84  A    between atoms: _203  and  _206
REMARK   85  A    between atoms: _209  and  _211
REMARK   86  A    between atoms: _211  and  _212
REMARK   87  A    between atoms: _211  and  _214
REMARK   88  A    between atoms: _214  and  _215
REMARK   89  A    between atoms: _218  and  _220
REMARK   90  A    between atoms: _220  and  _221
REMARK   91  A    between atoms: _220  and  _223
REMARK   92  A    between atoms: _223  and  _224
REMARK   93  A    between atoms: _224  and  _225
REMARK   94  A    between atoms: _230  and  _232
REMARK   95  A    between atoms: _232  and  _233
REMARK   96  A    between atoms: _235  and  _237
REMARK   97  A    between atoms: _237  and  _238
REMARK   98  A    between atoms: _237  and  _240
REMARK   99  A    between atoms: _240  and  _241
REMARK  100  A    between atoms: _244  and  _246
REMARK  101  A    between atoms: _246  and  _247
REMARK  102  A    between atoms: _246  and  _249
REMARK  103  A    between atoms: _249  and  _250
REMARK  104  A    between atoms: _253  and  _255
REMARK  105  A    between atoms: _255  and  _256
REMARK  106  A    between atoms: _255  and  _258
REMARK  107  A    between atoms: _258  and  _259
REMARK  108  A    between atoms: _262  and  _264
REMARK  109  A    between atoms: _264  and  _265
REMARK  110  A    between atoms: _264  and  _267
REMARK  111  A    between atoms: _267  and  _268
REMARK  112  A    between atoms: _273  and  _275
REMARK  113  A    between atoms: _275  and  _276
REMARK  114  A    between atoms: _275  and  _278
REMARK  115  A    between atoms: _278  and  _279
REMARK  116  A    between atoms: _279  and  _280
REMARK  117  A    between atoms: _283  and  _285
REMARK  118  A    between atoms: _285  and  _286
REMARK  119  A    between atoms: _289  and  _291
REMARK  120  A    between atoms: _291  and  _292
REMARK  121  A    between atoms: _291  and  _294
REMARK  122  A    between atoms: _294  and  _295
REMARK  123  A    between atoms: _295  and  _296
REMARK  124  A    between atoms: _301  and  _303
REMARK  125  A    between atoms: _303  and  _304
REMARK  126  A    between atoms: _307  and  _309
REMARK  127  A    between atoms: _309  and  _310
REMARK  128  A    between atoms: _309  and  _312
REMARK  129  A    between atoms: _312  and  _313
REMARK  130  A    between atoms: _316  and  _318
REMARK  131  A    between atoms: _318  and  _319
REMARK  132  A    between atoms: _318  and  _321
REMARK  133  A    between atoms: _321  and  _322
REMARK  134  A    between atoms: _325  and  _327
REMARK  135  A    between atoms: _327  and  _328
REMARK  136  A    between atoms: _327  and  _330
REMARK  137  A    between atoms: _330  and  _331
REMARK  138  A    between atoms: _334  and  _336
REMARK  139  A    between atoms: _336  and  _337
REMARK  140  A    between atoms: _336  and  _339
REMARK  141  A    between atoms: _339  and  _340
REMARK  142  A    between atoms: _343  and  _345
REMARK  143  A    between atoms: _345  and  _346
REMARK  144  A    between atoms: _345  and  _348
REMARK  145  A    between atoms: _348  and  _349
REMARK  146  A    between atoms: _351  and  _353
REMARK  147  A    between atoms: _353  and  _354
REMARK  148  A    between atoms: _356  and  _358
REMARK  149  A    between atoms: _358  and  _359
REMARK  150  A    between atoms: _358  and  _361
REMARK  151  A    between atoms: _361  and  _362
REMARK  152  A    between atoms: _365  and  _367
REMARK  153  A    between atoms: _367  and  _368
REMARK  154  A    between atoms: _367  and  _370
REMARK  155  A    between atoms: _370  and  _371
REMARK  156  A    between atoms: _374  and  _376
REMARK  157  A    between atoms: _376  and  _377
REMARK  158  A    between atoms: _376  and  _379
REMARK  159  A    between atoms: _379  and  _380
REMARK  160  A    between atoms: _383  and  _385
REMARK  161  A    between atoms: _385  and  _386
REMARK  162  A    between atoms: _385  and  _388
REMARK  163  A    between atoms: _388  and  _389
REMARK  164  A    between atoms: _392  and  _394
REMARK  165  A    between atoms: _394  and  _395
REMARK  166  A    between atoms: _394  and  _397
REMARK  167  A    between atoms: _397  and  _398
REMARK  168  A    between atoms: _403  and  _404
REMARK  169  A    between atoms: _406  and  _408
REMARK  170  A    between atoms: _408  and  _409
REMARK  171  A    between atoms: _408  and  _411
REMARK  172  A    between atoms: _411  and  _412
REMARK  173  A    between atoms: _412  and  _413
REMARK  174  A    between atoms: _418  and  _420
REMARK  175  A    between atoms: _420  and  _421
REMARK  176  A    between atoms: _420  and  _423
REMARK  177  A    between atoms: _423  and  _424
REMARK  178  A    between atoms: _427  and  _429
REMARK  179  A    between atoms: _429  and  _430
REMARK  180  A    between atoms: _429  and  _432
REMARK  181  A    between atoms: _432  and  _433
REMARK  182  A    between atoms: _438  and  _439
REMARK  183  A    between atoms: _441  and  _443
REMARK  184  A    between atoms: _443  and  _444
REMARK  185  A    between atoms: _443  and  _446
REMARK  186  A    between atoms: _446  and  _447
REMARK  187  A    between atoms: _447  and  _448
REMARK  188  A    between atoms: _453  and  _455
REMARK  189  A    between atoms: _455  and  _456
REMARK  190  A    between atoms: _455  and  _458
REMARK  191  A    between atoms: _458  and  _459
REMARK  192  A    between atoms: _464  and  _466
REMARK  193  A    between atoms: _466  and  _467
REMARK  194  A    between atoms: _466  and  _469
REMARK  195  A    between atoms: _469  and  _470
REMARK  196  A    between atoms: _473  and  _475
REMARK  197  A    between atoms: _475  and  _476
REMARK  198  A    between atoms: _475  and  _478
REMARK  199  A    between atoms: _478  and  _479
REMARK  200  A    between atoms: _489  and  _491
REMARK  201  A    between atoms: _491  and  _492
REMARK  202  A    between atoms: _491  and  _494
REMARK  203  A    between atoms: _494  and  _495
REMARK  204  A    between atoms: _495  and  _496
REMARK  205  A    between atoms: _501  and  _503
REMARK  206  A    between atoms: _503  and  _504
REMARK  207  A    between atoms: _503  and  _506
REMARK  208  A    between atoms: _506  and  _507
REMARK  209  A    between atoms: _509  and  _511
REMARK  210  A    between atoms: _511  and  _512
REMARK  211  A    between atoms: _511  and  _514
REMARK  212  A    between atoms: _514  and  _515
REMARK  213  A    between atoms: _518  and  _520
REMARK  214  A    between atoms: _520  and  _521
REMARK  215  A    between atoms: _520  and  _523
REMARK  216  A    between atoms: _523  and  _524
REMARK  217  A    between atoms: _527  and  _529
REMARK  218  A    between atoms: _529  and  _530
REMARK  219  A    between atoms: _529  and  _532
REMARK  220  A    between atoms: _532  and  _533
REMARK  221  A    between atoms: _536  and  _538
REMARK  222  A    between atoms: _538  and  _539
REMARK  223  A    between atoms: _538  and  _541
REMARK  224  A    between atoms: _541  and  _542
REMARK  225  A    between atoms: _545  and  _547
REMARK  226  A    between atoms: _547  and  _548
REMARK  227  A    between atoms: _550  and  _552
REMARK  228  A    between atoms: _552  and  _553
REMARK  229  A    between atoms: _552  and  _555
REMARK  230  A    between atoms: _555  and  _556
REMARK                            x       y       z     vdW  Elec       q    Type
REMARK                         _______ _______ _______ _____ _____    ______ ____
ROOT
ATOM      1  CA  ILE A   1      29.348  15.915  64.998  0.00  0.00    +0.133 C 
ENDROOT
BRANCH   1   2
ATOM      2  N   ILE A   1      28.094  16.057  64.274  0.00  0.00    -0.239 NA
ATOM      3  H   ILE A   1      27.893  16.954  63.788  0.00  0.00    +0.142 HD
ENDBRANCH   1   2
BRANCH   1   4
ATOM      4  C   ILE A   1      29.561  17.014  66.057  0.00  0.00    +0.224 C 
ATOM      5  O   ILE A   1      30.675  17.207  66.537  0.00  0.00    -0.287 OA
ENDBRANCH   1   4
BRANCH   1   6
ATOM      6  CB  ILE A   1      30.570  15.808  64.039  0.00  0.00    +0.023 C 
ATOM      7  CG2 ILE A   1      30.548  14.449  63.305  0.00  0.00    +0.002 C 
BRANCH   6   8
ATOM      8  CG1 ILE A   1      30.624  16.981  63.028  0.00  0.00    +0.002 C 
ATOM      9  CD1 ILE A   1      31.895  16.946  62.204  0.00  0.00    +0.000 C 
ENDBRANCH   6   8
ENDBRANCH   1   6
TORSDOF 4
REMARK  Name = ../refined-set-2016/3fv3/3fv3_pocket.pdb
REMARK  230 active torsions:
REMARK  status: ('A' for Active; 'I' for Inactive)
REMARK    1  A    between atoms: _1  and  _3
REMARK    2  A    between atoms: _3  and  _4
REMARK    3  A    between atoms: _7  and  _8
REMARK    4  A    between atoms: _13  and  _15
REMARK    5  A    between atoms: _15  and  _16
REMARK    6  A    between atoms: _15  and  _18
REMARK    7  A    between atoms: _18  and  _19
REMARK    8  A    between atoms: _21  and  _23
REMARK    9  A    between atoms: _23  and  _24
REMARK   10  A    between atoms: _23  and  _26
REMARK   11  A    between atoms: _26  and  _27
REMARK   12  A    between atoms: _32  and  _33
REMARK   13  A    between atoms: _35  and  _37
REMARK   14  A    between atoms: _37  and  _38
REMARK   15  A    between atoms: _37  and  _40
REMARK   16  A    between atoms: _40  and  _41
REMARK   17  A    between atoms: _44  and  _46
REMARK   18  A    between atoms: _46  and  _47
REMARK   19  A    between atoms: _46  and  _49
REMARK   20  A    between atoms: _49  and  _50
REMARK   21  A    between atoms: _53  and  _55
REMARK   22  A    between atoms: _55  and  _56
REMARK   23  A    between atoms: _55  and  _58
REMARK   24  A    between atoms: _58  and  _59
REMARK   25  A    between atoms: _62  and  _64
REMARK   26  A    between atoms: _64  and  _65
REMARK   27  A    between atoms: _64  and  _67
REMARK   28  A    between atoms: _67  and  _68
REMARK   29  A    between atoms: _71  and  _73
REMARK   30  A    between atoms: _73  and  _74
REMARK   31  A    between atoms: _76  and  _78
REMARK   32  A    between atoms: _78  and  _79
REMARK   33  A    between atoms: _78  and  _81
REMARK   34  A    between atoms: _81  and  _82
REMARK   35  A    between atoms: _84  and  _86
REMARK   36  A    between atoms: _86  and  _87
REMARK   37  A    between atoms: _86  and  _89
REMARK   38  A    between atoms: _89  and  _90
REMARK   39  A    between atoms: _92  and  _94
REMARK   40  A    between atoms: _94  and  _95
REMARK   41  A    between atoms: _94  and  _97
REMARK   42  A    between atoms: _97  and  _98
REMARK   43  A    between atoms: _101  and  _103
REMARK   44  A    between atoms: _103  and  _104
REMARK   45  A    between atoms: _103  and  _106
REMARK   46  A    between atoms: _106  and  _107
REMARK   47  A    between atoms: _117  and  _119
REMARK   48  A    between atoms: _119  and  _120
REMARK   49  A    between atoms: _119  and  _122
REMARK   50  A    between atoms: _122  and  _123
REMARK   51  A    between atoms: _126  and  _128
REMARK   52  A    between atoms: _128  and  _129
REMARK   53  A    between atoms: _128  and  _131
REMARK   54  A    between atoms: _131  and  _132
REMARK   55  A    between atoms: _132  and  _133
REMARK   56  A    between atoms: _133  and  _134
REMARK   57  A    between atoms: _143  and  _145
REMARK   58  A    between atoms: _145  and  _146
REMARK   59  A    between atoms: _145  and  _148
REMARK   60  A    between atoms: _148  and  _149
REMARK   61  A    between atoms: _154  and  _155
REMARK   62  A    between atoms: _157  and  _159
REMARK   63  A    between atoms: _159  and  _160
REMARK   64  A    between atoms: _162  and  _164
REMARK   65  A    between atoms: _164  and  _165
REMARK   66  A    between atoms: _164  and  _167
REMARK   67  A    between atoms: _167  and  _168
REMARK   68  A    between atoms: _171  and  _173
REMARK   69  A    between atoms: _173  and  _174
REMARK   70  A    between atoms: _176  and  _178
REMARK   71  A    between atoms: _178  and  _179
REMARK   72  A    between atoms: _178  and  _181
REMARK   73  A    between atoms: _181  and  _182
REMARK   74  A    between atoms: _184  and  _186
REMARK   75  A    between atoms: _186  and  _187
REMARK   76  A    between atoms: _186  and  _189
REMARK   77  A    between atoms: _189  and  _190
REMARK   78  A    between atoms: _193  and  _195
REMARK   79  A    between atoms: _195  and  _196
REMARK   80  A    between atoms: _195  and  _198
REMARK   81  A    between atoms: _198  and  _199
REMARK   82  A    between atoms: _201  and  _203
REMARK   83  A    between atoms: _203  and  _204
REMARK   84  A    between atoms: _203  and  _206
REMARK   85  A    between atoms: _209  and  _211
REMARK   86  A    between atoms: _211  and  _212
REMARK   87  A    between atoms: _211  and  _214
REMARK   88  A    between atoms: _214  and  _215
REMARK   89  A    between atoms: _218  and  _220
REMARK   90  A    between atoms: _220  and  _221
REMARK   91  A    between atoms: _220  and  _223
REMARK   92  A    between atoms: _223  and  _224
REMARK   93  A    between atoms: _224  and  _225
REMARK   94  A    between atoms: _230  and  _232
REMARK   95  A    between atoms: _232  and  _233
REMARK   96  A    between atoms: _235  and  _237
REMARK   97  A    between atoms: _237  and  _238
REMARK   98  A    between atoms: _237  and  _240
REMARK   99  A    between atoms: _240  and  _241
REMARK  100  A    between atoms: _244  and  _246
REMARK  101  A    between atoms: _246  and  _247
REMARK  102  A    between atoms: _246  and  _249
REMARK  103  A    between atoms: _249  and  _250
REMARK  104  A    between atoms: _253  and  _255
REMARK  105  A    between atoms: _255  and  _256
REMARK  106  A    between atoms: _255  and  _258
REMARK  107  A    between atoms: _258  and  _259
REMARK  108  A    between atoms: _262  and  _264
REMARK  109  A    between atoms: _264  and  _265
REMARK  110  A    between atoms: _264  and  _267
REMARK  111  A    between atoms: _267  and  _268
REMARK  112  A    between atoms: _273  and  _275
REMARK  113  A    between atoms: _275  and  _276
REMARK  114  A    between atoms: _275  and  _278
REMARK  115  A    between atoms: _278  and  _279
REMARK  116  A    between atoms: _279  and  _280
REMARK  117  A    between atoms: _283  and  _285
REMARK  118  A    between atoms: _285  and  _286
REMARK  119  A    between atoms: _289  and  _291
REMARK  120  A    between atoms: _291  and  _292
REMARK  121  A    between atoms: _291  and  _294
REMARK  122  A    between atoms: _294  and  _295
REMARK  123  A    between atoms: _295  and  _296
REMARK  124  A    between atoms: _301  and  _303
REMARK  125  A    between atoms: _303  and  _304
REMARK  126  A    between atoms: _307  and  _309
REMARK  127  A    between atoms: _309  and  _310
REMARK  128  A    between atoms: _309  and  _312
REMARK  129  A    between atoms: _312  and  _313
REMARK  130  A    between atoms: _316  and  _318
REMARK  131  A    between atoms: _318  and  _319
REMARK  132  A    between atoms: _318  and  _321
REMARK  133  A    between atoms: _321  and  _322
REMARK  134  A    between atoms: _325  and  _327
REMARK  135  A    between atoms: _327  and  _328
REMARK  136  A    between atoms: _327  and  _330
REMARK  137  A    between atoms: _330  and  _331
REMARK  138  A    between atoms: _334  and  _336
REMARK  139  A    between atoms: _336  and  _337
REMARK  140  A    between atoms: _336  and  _339
REMARK  141  A    between atoms: _339  and  _340
REMARK  142  A    between atoms: _343  and  _345
REMARK  143  A    between atoms: _345  and  _346
REMARK  144  A    between atoms: _345  and  _348
REMARK  145  A    between atoms: _348  and  _349
REMARK  146  A    between atoms: _351  and  _353
REMARK  147  A    between atoms: _353  and  _354
REMARK  148  A    between atoms: _356  and  _358
REMARK  149  A    between atoms: _358  and  _359
REMARK  150  A    between atoms: _358  and  _361
REMARK  151  A    between atoms: _361  and  _362
REMARK  152  A    between atoms: _365  and  _367
REMARK  153  A    between atoms: _367  and  _368
REMARK  154  A    between atoms: _367  and  _370
REMARK  155  A    between atoms: _370  and  _371
REMARK  156  A    between atoms: _374  and  _376
REMARK  157  A    between atoms: _376  and  _377
REMARK  158  A    between atoms: _376  and  _379
REMARK  159  A    between atoms: _379  and  _380
REMARK  160  A    between atoms: _383  and  _385
REMARK  161  A    between atoms: _385  and  _386
REMARK  162  A    between atoms: _385  and  _388
REMARK  163  A    between atoms: _388  and  _389
REMARK  164  A    between atoms: _392  and  _394
REMARK  165  A    between atoms: _394  and  _395
REMARK  166  A    between atoms: _394  and  _397
REMARK  167  A    between atoms: _397  and  _398
REMARK  168  A    between atoms: _403  and  _404
REMARK  169  A    between atoms: _406  and  _408
REMARK  170  A    between atoms: _408  and  _409
REMARK  171  A    between atoms: _408  and  _411
REMARK  172  A    between atoms: _411  and  _412
REMARK  173  A    between atoms: _412  and  _413
REMARK  174  A    between atoms: _418  and  _420
REMARK  175  A    between atoms: _420  and  _421
REMARK  176  A    between atoms: _420  and  _423
REMARK  177  A    between atoms: _423  and  _424
REMARK  178  A    between atoms: _427  and  _429
REMARK  179  A    between atoms: _429  and  _430
REMARK  180  A    between atoms: _429  and  _432
REMARK  181  A    between atoms: _432  and  _433
REMARK  182  A    between atoms: _438  and  _439
REMARK  183  A    between atoms: _441  and  _443
REMARK  184  A    between atoms: _443  and  _444
REMARK  185  A    between atoms: _443  and  _446
REMARK  186  A    between atoms: _446  and  _447
REMARK  187  A    between atoms: _447  and  _448
REMARK  188  A    between atoms: _453  and  _455
REMARK  189  A    between atoms: _455  and  _456
REMARK  190  A    between atoms: _455  and  _458
REMARK  191  A    between atoms: _458  and  _459
REMARK  192  A    between atoms: _464  and  _466
REMARK  193  A    between atoms: _466  and  _467
REMARK  194  A    between atoms: _466  and  _469
REMARK  195  A    between atoms: _469  and  _470
REMARK  196  A    between atoms: _473  and  _475
REMARK  197  A    between atoms: _475  and  _476
REMARK  198  A    between atoms: _475  and  _478
REMARK  199  A    between atoms: _478  and  _479
REMARK  200  A    between atoms: _489  and  _491
REMARK  201  A    between atoms: _491  and  _492
REMARK  202  A    between atoms: _491  and  _494
REMARK  203  A    between atoms: _494  and  _495
REMARK  204  A    between atoms: _495  and  _496
REMARK  205  A    between atoms: _501  and  _503
REMARK  206  A    between atoms: _503  and  _504
REMARK  207  A    between atoms: _503  and  _506
REMARK  208  A    between atoms: _506  and  _507
REMARK  209  A    between atoms: _509  and  _511
REMARK  210  A    between atoms: _511  and  _512
REMARK  211  A    between atoms: _511  and  _514
REMARK  212  A    between atoms: _514  and  _515
REMARK  213  A    between atoms: _518  and  _520
REMARK  214  A    between atoms: _520  and  _521
REMARK  215  A    between atoms: _520  and  _523
REMARK  216  A    between atoms: _523  and  _524
REMARK  217  A    between atoms: _527  and  _529
REMARK  218  A    between atoms: _529  and  _530
REMARK  219  A    between atoms: _529  and  _532
REMARK  220  A    between atoms: _532  and  _533
REMARK  221  A    between atoms: _536  and  _538
REMARK  222  A    between atoms: _538  and  _539
REMARK  223  A    between atoms: _538  and  _541
REMARK  224  A    between atoms: _541  and  _542
REMARK  225  A    between atoms: _545  and  _547
REMARK  226  A    between atoms: _547  and  _548
REMARK  227  A    between atoms: _550  and  _552
REMARK  228  A    between atoms: _552  and  _553
REMARK  229  A    between atoms: _552  and  _555
REMARK  230  A    between atoms: _555  and  _556
REMARK                            x       y       z     vdW  Elec       q    Type
REMARK                         _______ _______ _______ _____ _____    ______ ____
ROOT
ATOM      1  CA  GLU A   2      21.540  15.551  70.829  0.00  0.00    +0.149 C 
ENDROOT
BRANCH   1   3
ATOM      2  C   ASN A   1      22.015  17.929  70.840  0.00  0.00    +0.239 C 
ATOM      3  N   GLU A   2      22.183  16.733  71.386  0.00  0.00    -0.297 N 
ATOM      4  H   GLU A   2      22.785  16.637  72.228  0.00  0.00    +0.150 HD
ATOM      5  O   ASN A   1      21.366  18.108  69.786  0.00  0.00    -0.274 OA
BRANCH   2   6
ATOM      6  CA  ASN A   1      22.679  19.095  71.584  0.00  0.00    +0.154 C 
BRANCH   6   7
ATOM      7  N   ASN A   1      23.640  18.651  72.596  0.00  0.00    -0.238 NA
ATOM      8  H   ASN A   1      24.568  18.292  72.293  0.00  0.00    +0.142 HD
ENDBRANCH   6   7
BRANCH   6   9
ATOM      9  CB  ASN A   1      23.332  20.048  70.572  0.00  0.00    +0.111 C 
BRANCH   9  10
ATOM     10  CG  ASN A   1      22.307  20.913  69.867  0.00  0.00    +0.221 C 
ATOM     11  OD1 ASN A   1      21.324  21.306  70.482  0.00  0.00    -0.275 OA
ATOM     12  ND2 ASN A   1      22.506  21.182  68.578  0.00  0.00    -0.329 N 
ATOM     13 HD21 ASN A   1      23.357  20.826  68.098  0.00  0.00    +0.145 HD
ATOM     14 HD22 ASN A   1      21.810  21.748  68.051  0.00  0.00    +0.145 HD
ENDBRANCH   9  10
ENDBRANCH   6   9
ENDBRANCH   2   6
ENDBRANCH   1   3
BRANCH   1  15
ATOM     15  C   GLU A   2      20.019  15.672  70.897  0.00  0.00    +0.241 C 
ATOM     16  O   GLU A   2      19.464  16.164  71.886  0.00  0.00    -0.273 OA
ATOM     17  N   ALA A   3      19.361  15.235  69.821  0.00  0.00    -0.298 N 
ATOM     18  H   ALA A   3      19.902  14.878  69.008  0.00  0.00    +0.150 HD
BRANCH  17  19
ATOM     19  CA  ALA A   3      17.904  15.244  69.754  0.00  0.00    +0.137 C 
ATOM     20  CB  ALA A   3      17.438  15.318  68.302  0.00  0.00    +0.030 C 
BRANCH  19  21
ATOM     21  C   ALA A   3      17.312  14.020  70.459  0.00  0.00    +0.227 C 
ATOM     22  O   ALA A   3      16.983  13.010  69.822  0.00  0.00    -0.286 OA
ENDBRANCH  19  21
ENDBRANCH  17  19
ENDBRANCH   1  15
BRANCH   1  23
ATOM     23  CB  GLU A   2      22.018  14.282  71.544  0.00  0.00    +0.041 C 
BRANCH  23  24
ATOM     24  CG  GLU A   2      23.472  13.949  71.223  0.00  0.00    +0.116 C 
BRANCH  24  25
ATOM     25  CD  GLU A   2      24.120  12.995  72.223  0.00  0.00    +0.365 C 
ATOM     26  OE2 GLU A   2      23.553  12.733  73.318  0.00  0.00    -0.246 OA
ATOM     27  OE1 GLU A   2      25.230  12.504  71.904  0.00  0.00    -0.246 OA
ENDBRANCH  24  25
ENDBRANCH  23  24
ENDBRANCH   1  23
TORSDOF 11
REMARK  Name = ../refined-set-2016/3fv3/3fv3_pocket.pdb
REMARK  230 active torsions:
REMARK  status: ('A' for Active; 'I' for Inactive)
REMARK    1  A    between atoms: _1  and  _3
REMARK    2  A    between atoms: _3  and  _4
REMARK    3  A    between atoms: _7  and  _8
REMARK    4  A    between atoms: _13  and  _15
REMARK    5  A    between atoms: _15  and  _16
REMARK    6  A    between atoms: _15  and  _18
REMARK    7  A    between atoms: _18  and  _19
REMARK    8  A    between atoms: _21  and  _23
REMARK    9  A    between atoms: _23  and  _24
REMARK   10  A    between atoms: _23  and  _26
REMARK   11  A    between atoms: _26  and  _27
REMARK   12  A    between atoms: _32  and  _33
REMARK   13  A    between atoms: _35  and  _37
REMARK   14  A    between atoms: _37  and  _38
REMARK   15  A    between atoms: _37  and  _40
REMARK   16  A    between atoms: _40  and  _41
REMARK   17  A    between atoms: _44  and  _46
REMARK   18  A    between atoms: _46  and  _47
REMARK   19  A    between atoms: _46  and  _49
REMARK   20  A    between atoms: _49  and  _50
REMARK   21  A    between atoms: _53  and  _55
REMARK   22  A    between atoms: _55  and  _56
REMARK   23  A    between atoms: _55  and  _58
REMARK   24  A    between atoms: _58  and  _59
REMARK   25  A    between atoms: _62  and  _64
REMARK   26  A    between atoms: _64  and  _65
REMARK   27  A    between atoms: _64  and  _67
REMARK   28  A    between atoms: _67  and  _68
REMARK   29  A    between atoms: _71  and  _73
REMARK   30  A    between atoms: _73  and  _74
REMARK   31  A    between atoms: _76  and  _78
REMARK   32  A    between atoms: _78  and  _79
REMARK   33  A    between atoms: _78  and  _81
REMARK   34  A    between atoms: _81  and  _82
REMARK   35  A    between atoms: _84  and  _86
REMARK   36  A    between atoms: _86  and  _87
REMARK   37  A    between atoms: _86  and  _89
REMARK   38  A    between atoms: _89  and  _90
REMARK   39  A    between atoms: _92  and  _94
REMARK   40  A    between atoms: _94  and  _95
REMARK   41  A    between atoms: _94  and  _97
REMARK   42  A    between atoms: _97  and  _98
REMARK   43  A    between atoms: _101  and  _103
REMARK   44  A    between atoms: _103  and  _104
REMARK   45  A    between atoms: _103  and  _106
REMARK   46  A    between atoms: _106  and  _107
REMARK   47  A    between atoms: _117  and  _119
REMARK   48  A    between atoms: _119  and  _120
REMARK   49  A    between atoms: _119  and  _122
REMARK   50  A    between atoms: _122  and  _123
REMARK   51  A    between atoms: _126  and  _128
REMARK   52  A    between atoms: _128  and  _129
REMARK   53  A    between atoms: _128  and  _131
REMARK   54  A    between atoms: _131  and  _132
REMARK   55  A    between atoms: _132  and  _133
REMARK   56  A    between atoms: _133  and  _134
REMARK   57  A    between atoms: _143  and  _145
REMARK   58  A    between atoms: _145  and  _146
REMARK   59  A    between atoms: _145  and  _148
REMARK   60  A    between atoms: _148  and  _149
REMARK   61  A    between atoms: _154  and  _155
REMARK   62  A    between atoms: _157  and  _159
REMARK   63  A    between atoms: _159  and  _160
REMARK   64  A    between atoms: _162  and  _164
REMARK   65  A    between atoms: _164  and  _165
REMARK   66  A    between atoms: _164  and  _167
REMARK   67  A    between atoms: _167  and  _168
REMARK   68  A    between atoms: _171  and  _173
REMARK   69  A    between atoms: _173  and  _174
REMARK   70  A    between atoms: _176  and  _178
REMARK   71  A    between atoms: _178  and  _179
REMARK   72  A    between atoms: _178  and  _181
REMARK   73  A    between atoms: _181  and  _182
REMARK   74  A    between atoms: _184  and  _186
REMARK   75  A    between atoms: _186  and  _187
REMARK   76  A    between atoms: _186  and  _189
REMARK   77  A    between atoms: _189  and  _190
REMARK   78  A    between atoms: _193  and  _195
REMARK   79  A    between atoms: _195  and  _196
REMARK   80  A    between atoms: _195  and  _198
REMARK   81  A    between atoms: _198  and  _199
REMARK   82  A    between atoms: _201  and  _203
REMARK   83  A    between atoms: _203  and  _204
REMARK   84  A    between atoms: _203  and  _206
REMARK   85  A    between atoms: _209  and  _211
REMARK   86  A    between atoms: _211  and  _212
REMARK   87  A    between atoms: _211  and  _214
REMARK   88  A    between atoms: _214  and  _215
REMARK   89  A    between atoms: _218  and  _220
REMARK   90  A    between atoms: _220  and  _221
REMARK   91  A    between atoms: _220  and  _223
REMARK   92  A    between atoms: _223  and  _224
REMARK   93  A    between atoms: _224  and  _225
REMARK   94  A    between atoms: _230  and  _232
REMARK   95  A    between atoms: _232  and  _233
REMARK   96  A    between atoms: _235  and  _237
REMARK   97  A    between atoms: _237  and  _238
REMARK   98  A    between atoms: _237  and  _240
REMARK   99  A    between atoms: _240  and  _241
REMARK  100  A    between atoms: _244  and  _246
REMARK  101  A    between atoms: _246  and  _247
REMARK  102  A    between atoms: _246  and  _249
REMARK  103  A    between atoms: _249  and  _250
REMARK  104  A    between atoms: _253  and  _255
REMARK  105  A    between atoms: _255  and  _256
REMARK  106  A    between atoms: _255  and  _258
REMARK  107  A    between atoms: _258  and  _259
REMARK  108  A    between atoms: _262  and  _264
REMARK  109  A    between atoms: _264  and  _265
REMARK  110  A    between atoms: _264  and  _267
REMARK  111  A    between atoms: _267  and  _268
REMARK  112  A    between atoms: _273  and  _275
REMARK  113  A    between atoms: _275  and  _276
REMARK  114  A    between atoms: _275  and  _278
REMARK  115  A    between atoms: _278  and  _279
REMARK  116  A    between atoms: _279  and  _280
REMARK  117  A    between atoms: _283  and  _285
REMARK  118  A    between atoms: _285  and  _286
REMARK  119  A    between atoms: _289  and  _291
REMARK  120  A    between atoms: _291  and  _292
REMARK  121  A    between atoms: _291  and  _294
REMARK  122  A    between atoms: _294  and  _295
REMARK  123  A    between atoms: _295  and  _296
REMARK  124  A    between atoms: _301  and  _303
REMARK  125  A    between atoms: _303  and  _304
REMARK  126  A    between atoms: _307  and  _309
REMARK  127  A    between atoms: _309  and  _310
REMARK  128  A    between atoms: _309  and  _312
REMARK  129  A    between atoms: _312  and  _313
REMARK  130  A    between atoms: _316  and  _318
REMARK  131  A    between atoms: _318  and  _319
REMARK  132  A    between atoms: _318  and  _321
REMARK  133  A    between atoms: _321  and  _322
REMARK  134  A    between atoms: _325  and  _327
REMARK  135  A    between atoms: _327  and  _328
REMARK  136  A    between atoms: _327  and  _330
REMARK  137  A    between atoms: _330  and  _331
REMARK  138  A    between atoms: _334  and  _336
REMARK  139  A    between atoms: _336  and  _337
REMARK  140  A    between atoms: _336  and  _339
REMARK  141  A    between atoms: _339  and  _340
REMARK  142  A    between atoms: _343  and  _345
REMARK  143  A    between atoms: _345  and  _346
REMARK  144  A    between atoms: _345  and  _348
REMARK  145  A    between atoms: _348  and  _349
REMARK  146  A    between atoms: _351  and  _353
REMARK  147  A    between atoms: _353  and  _354
REMARK  148  A    between atoms: _356  and  _358
REMARK  149  A    between atoms: _358  and  _359
REMARK  150  A    between atoms: _358  and  _361
REMARK  151  A    between atoms: _361  and  _362
REMARK  152  A    between atoms: _365  and  _367
REMARK  153  A    between atoms: _367  and  _368
REMARK  154  A    between atoms: _367  and  _370
REMARK  155  A    between atoms: _370  and  _371
REMARK  156  A    between atoms: _374  and  _376
REMARK  157  A    between atoms: _376  and  _377
REMARK  158  A    between atoms: _376  and  _379
REMARK  159  A    between atoms: _379  and  _380
REMARK  160  A    between atoms: _383  and  _385
REMARK  161  A    between atoms: _385  and  _386
REMARK  162  A    between atoms: _385  and  _388
REMARK  163  A    between atoms: _388  and  _389
REMARK  164  A    between atoms: _392  and  _394
REMARK  165  A    between atoms: _394  and  _395
REMARK  166  A    between atoms: _394  and  _397
REMARK  167  A    between atoms: _397  and  _398
REMARK  168  A    between atoms: _403  and  _404
REMARK  169  A    between atoms: _406  and  _408
REMARK  170  A    between atoms: _408  and  _409
REMARK  171  A    between atoms: _408  and  _411
REMARK  172  A    between atoms: _411  and  _412
REMARK  173  A    between atoms: _412  and  _413
REMARK  174  A    between atoms: _418  and  _420
REMARK  175  A    between atoms: _420  and  _421
REMARK  176  A    between atoms: _420  and  _423
REMARK  177  A    between atoms: _423  and  _424
REMARK  178  A    between atoms: _427  and  _429
REMARK  179  A    between atoms: _429  and  _430
REMARK  180  A    between atoms: _429  and  _432
REMARK  181  A    between atoms: _432  and  _433
REMARK  182  A    between atoms: _438  and  _439
REMARK  183  A    between atoms: _441  and  _443
REMARK  184  A    between atoms: _443  and  _444
REMARK  185  A    between atoms: _443  and  _446
REMARK  186  A    between atoms: _446  and  _447
REMARK  187  A    between atoms: _447  and  _448
REMARK  188  A    between atoms: _453  and  _455
REMARK  189  A    between atoms: _455  and  _456
REMARK  190  A    between atoms: _455  and  _458
REMARK  191  A    between atoms: _458  and  _459
REMARK  192  A    between atoms: _464  and  _466
REMARK  193  A    between atoms: _466  and  _467
REMARK  194  A    between atoms: _466  and  _469
REMARK  195  A    between atoms: _469  and  _470
REMARK  196  A    between atoms: _473  and  _475
REMARK  197  A    between atoms: _475  and  _476
REMARK  198  A    between atoms: _475  and  _478
REMARK  199  A    between atoms: _478  and  _479
REMARK  200  A    between atoms: _489  and  _491
REMARK  201  A    between atoms: _491  and  _492
REMARK  202  A    between atoms: _491  and  _494
REMARK  203  A    between atoms: _494  and  _495
REMARK  204  A    between atoms: _495  and  _496
REMARK  205  A    between atoms: _501  and  _503
REMARK  206  A    between atoms: _503  and  _504
REMARK  207  A    between atoms: _503  and  _506
REMARK  208  A    between atoms: _506  and  _507
REMARK  209  A    between atoms: _509  and  _511
REMARK  210  A    between atoms: _511  and  _512
REMARK  211  A    between atoms: _511  and  _514
REMARK  212  A    between atoms: _514  and  _515
REMARK  213  A    between atoms: _518  and  _520
REMARK  214  A    between atoms: _520  and  _521
REMARK  215  A    between atoms: _520  and  _523
REMARK  216  A    between atoms: _523  and  _524
REMARK  217  A    between atoms: _527  and  _529
REMARK  218  A    between atoms: _529  and  _530
REMARK  219  A    between atoms: _529  and  _532
REMARK  220  A    between atoms: _532  and  _533
REMARK  221  A    between atoms: _536  and  _538
REMARK  222  A    between atoms: _538  and  _539
REMARK  223  A    between atoms: _538  and  _541
REMARK  224  A    between atoms: _541  and  _542
REMARK  225  A    between atoms: _545  and  _547
REMARK  226  A    between atoms: _547  and  _548
REMARK  227  A    between atoms: _550  and  _552
REMARK  228  A    between atoms: _552  and  _553
REMARK  229  A    between atoms: _552  and  _555
REMARK  230  A    between atoms: _555  and  _556
REMARK                            x       y       z     vdW  Elec       q    Type
REMARK                         _______ _______ _______ _____ _____    ______ ____
ROOT
ATOM      1  C   GLN A   1      25.523  23.484  71.806  0.00  0.00    +0.238 C 
ATOM      2  N   ALA A   2      25.965  24.687  71.438  0.00  0.00    -0.297 N 
ATOM      3  H   ALA A   2      26.062  25.438  72.151  0.00  0.00    +0.150 HD
ATOM      4  O   GLN A   1      25.475  22.507  71.050  0.00  0.00    -0.274 OA
ENDROOT
BRANCH   2   5
ATOM      5  CA  ALA A   2      26.316  24.967  70.043  0.00  0.00    +0.149 C 
ATOM      6  CB  ALA A   2      25.378  26.047  69.458  0.00  0.00    +0.031 C 
BRANCH   5   7
ATOM      7  C   ALA A   2      27.764  25.403  69.892  0.00  0.00    +0.241 C 
ATOM      8  O   ALA A   2      28.340  25.993  70.814  0.00  0.00    -0.273 OA
ATOM      9  N   LEU A   3      28.329  25.155  68.704  0.00  0.00    -0.298 N 
ATOM     10  H   LEU A   3      27.764  24.697  67.961  0.00  0.00    +0.150 HD
BRANCH   9  11
ATOM     11  CA  LEU A   3      29.708  25.508  68.424  0.00  0.00    +0.137 C 
BRANCH  11  12
ATOM     12  C   LEU A   3      29.740  26.956  67.954  0.00  0.00    +0.227 C 
ATOM     13  O   LEU A   3      29.903  27.241  66.763  0.00  0.00    -0.286 OA
ENDBRANCH  11  12
BRANCH  11  14
ATOM     14  CB  LEU A   3      30.351  24.525  67.415  0.00  0.00    +0.028 C 
BRANCH  14  15
ATOM     15  CG  LEU A   3      30.592  23.181  68.133  0.00  0.00    +0.002 C 
ATOM     16  CD2 LEU A   3      31.869  23.232  68.936  0.00  0.00    +0.000 C 
ATOM     17  CD1 LEU A   3      30.649  22.039  67.138  0.00  0.00    +0.000 C 
ENDBRANCH  14  15
ENDBRANCH  11  14
ENDBRANCH   9  11
ENDBRANCH   5   7
ENDBRANCH   2   5
BRANCH   1  18
ATOM     18  CA  GLN A   1      25.030  23.336  73.228  0.00  0.00    +0.145 C 
BRANCH  18  19
ATOM     19  N   GLN A   1      25.617  24.311  74.150  0.00  0.00    -0.238 NA
ATOM     20  H   GLN A   1      25.468  25.331  74.008  0.00  0.00    +0.142 HD
ENDBRANCH  18  19
BRANCH  18  21
ATOM     21  CB  GLN A   1      23.508  23.455  73.237  0.00  0.00    +0.036 C 
BRANCH  21  22
ATOM     22  CG  GLN A   1      22.903  23.293  74.635  0.00  0.00    +0.087 C 
BRANCH  22  23
ATOM     23  CD  GLN A   1      21.476  22.838  74.601  0.00  0.00    +0.219 C 
ATOM     24  NE2 GLN A   1      20.965  22.424  75.747  0.00  0.00    -0.329 N 
ATOM     25 HE21 GLN A   1      21.545  22.437  76.610  0.00  0.00    +0.145 HD
ATOM     26 HE22 GLN A   1      19.983  22.085  75.786  0.00  0.00    +0.145 HD
ATOM     27  OE1 GLN A   1      20.832  22.843  73.549  0.00  0.00    -0.275 OA
ENDBRANCH  22  23
ENDBRANCH  21  22
ENDBRANCH  18  21
ENDBRANCH   1  18
TORSDOF 11
REMARK  Name = ../refined-set-2016/3fv3/3fv3_pocket.pdb
REMARK  230 active torsions:
REMARK  status: ('A' for Active; 'I' for Inactive)
REMARK    1  A    between atoms: _1  and  _3
REMARK    2  A    between atoms: _3  and  _4
REMARK    3  A    between atoms: _7  and  _8
REMARK    4  A    between atoms: _13  and  _15
REMARK    5  A    between atoms: _15  and  _16
REMARK    6  A    between atoms: _15  and  _18
REMARK    7  A    between atoms: _18  and  _19
REMARK    8  A    between atoms: _21  and  _23
REMARK    9  A    between atoms: _23  and  _24
REMARK   10  A    between atoms: _23  and  _26
REMARK   11  A    between atoms: _26  and  _27
REMARK   12  A    between atoms: _32  and  _33
REMARK   13  A    between atoms: _35  and  _37
REMARK   14  A    between atoms: _37  and  _38
REMARK   15  A    between atoms: _37  and  _40
REMARK   16  A    between atoms: _40  and  _41
REMARK   17  A    between atoms: _44  and  _46
REMARK   18  A    between atoms: _46  and  _47
REMARK   19  A    between atoms: _46  and  _49
REMARK   20  A    between atoms: _49  and  _50
REMARK   21  A    between atoms: _53  and  _55
REMARK   22  A    between atoms: _55  and  _56
REMARK   23  A    between atoms: _55  and  _58
REMARK   24  A    between atoms: _58  and  _59
REMARK   25  A    between atoms: _62  and  _64
REMARK   26  A    between atoms: _64  and  _65
REMARK   27  A    between atoms: _64  and  _67
REMARK   28  A    between atoms: _67  and  _68
REMARK   29  A    between atoms: _71  and  _73
REMARK   30  A    between atoms: _73  and  _74
REMARK   31  A    between atoms: _76  and  _78
REMARK   32  A    between atoms: _78  and  _79
REMARK   33  A    between atoms: _78  and  _81
REMARK   34  A    between atoms: _81  and  _82
REMARK   35  A    between atoms: _84  and  _86
REMARK   36  A    between atoms: _86  and  _87
REMARK   37  A    between atoms: _86  and  _89
REMARK   38  A    between atoms: _89  and  _90
REMARK   39  A    between atoms: _92  and  _94
REMARK   40  A    between atoms: _94  and  _95
REMARK   41  A    between atoms: _94  and  _97
REMARK   42  A    between atoms: _97  and  _98
REMARK   43  A    between atoms: _101  and  _103
REMARK   44  A    between atoms: _103  and  _104
REMARK   45  A    between atoms: _103  and  _106
REMARK   46  A    between atoms: _106  and  _107
REMARK   47  A    between atoms: _117  and  _119
REMARK   48  A    between atoms: _119  and  _120
REMARK   49  A    between atoms: _119  and  _122
REMARK   50  A    between atoms: _122  and  _123
REMARK   51  A    between atoms: _126  and  _128
REMARK   52  A    between atoms: _128  and  _129
REMARK   53  A    between atoms: _128  and  _131
REMARK   54  A    between atoms: _131  and  _132
REMARK   55  A    between atoms: _132  and  _133
REMARK   56  A    between atoms: _133  and  _134
REMARK   57  A    between atoms: _143  and  _145
REMARK   58  A    between atoms: _145  and  _146
REMARK   59  A    between atoms: _145  and  _148
REMARK   60  A    between atoms: _148  and  _149
REMARK   61  A    between atoms: _154  and  _155
REMARK   62  A    between atoms: _157  and  _159
REMARK   63  A    between atoms: _159  and  _160
REMARK   64  A    between atoms: _162  and  _164
REMARK   65  A    between atoms: _164  and  _165
REMARK   66  A    between atoms: _164  and  _167
REMARK   67  A    between atoms: _167  and  _168
REMARK   68  A    between atoms: _171  and  _173
REMARK   69  A    between atoms: _173  and  _174
REMARK   70  A    between atoms: _176  and  _178
REMARK   71  A    between atoms: _178  and  _179
REMARK   72  A    between atoms: _178  and  _181
REMARK   73  A    between atoms: _181  and  _182
REMARK   74  A    between atoms: _184  and  _186
REMARK   75  A    between atoms: _186  and  _187
REMARK   76  A    between atoms: _186  and  _189
REMARK   77  A    between atoms: _189  and  _190
REMARK   78  A    between atoms: _193  and  _195
REMARK   79  A    between atoms: _195  and  _196
REMARK   80  A    between atoms: _195  and  _198
REMARK   81  A    between atoms: _198  and  _199
REMARK   82  A    between atoms: _201  and  _203
REMARK   83  A    between atoms: _203  and  _204
REMARK   84  A    between atoms: _203  and  _206
REMARK   85  A    between atoms: _209  and  _211
REMARK   86  A    between atoms: _211  and  _212
REMARK   87  A    between atoms: _211  and  _214
REMARK   88  A    between atoms: _214  and  _215
REMARK   89  A    between atoms: _218  and  _220
REMARK   90  A    between atoms: _220  and  _221
REMARK   91  A    between atoms: _220  and  _223
REMARK   92  A    between atoms: _223  and  _224
REMARK   93  A    between atoms: _224  and  _225
REMARK   94  A    between atoms: _230  and  _232
REMARK   95  A    between atoms: _232  and  _233
REMARK   96  A    between atoms: _235  and  _237
REMARK   97  A    between atoms: _237  and  _238
REMARK   98  A    between atoms: _237  and  _240
REMARK   99  A    between atoms: _240  and  _241
REMARK  100  A    between atoms: _244  and  _246
REMARK  101  A    between atoms: _246  and  _247
REMARK  102  A    between atoms: _246  and  _249
REMARK  103  A    between atoms: _249  and  _250
REMARK  104  A    between atoms: _253  and  _255
REMARK  105  A    between atoms: _255  and  _256
REMARK  106  A    between atoms: _255  and  _258
REMARK  107  A    between atoms: _258  and  _259
REMARK  108  A    between atoms: _262  and  _264
REMARK  109  A    between atoms: _264  and  _265
REMARK  110  A    between atoms: _264  and  _267
REMARK  111  A    between atoms: _267  and  _268
REMARK  112  A    between atoms: _273  and  _275
REMARK  113  A    between atoms: _275  and  _276
REMARK  114  A    between atoms: _275  and  _278
REMARK  115  A    between atoms: _278  and  _279
REMARK  116  A    between atoms: _279  and  _280
REMARK  117  A    between atoms: _283  and  _285
REMARK  118  A    between atoms: _285  and  _286
REMARK  119  A    between atoms: _289  and  _291
REMARK  120  A    between atoms: _291  and  _292
REMARK  121  A    between atoms: _291  and  _294
REMARK  122  A    between atoms: _294  and  _295
REMARK  123  A    between atoms: _295  and  _296
REMARK  124  A    between atoms: _301  and  _303
REMARK  125  A    between atoms: _303  and  _304
REMARK  126  A    between atoms: _307  and  _309
REMARK  127  A    between atoms: _309  and  _310
REMARK  128  A    between atoms: _309  and  _312
REMARK  129  A    between atoms: _312  and  _313
REMARK  130  A    between atoms: _316  and  _318
REMARK  131  A    between atoms: _318  and  _319
REMARK  132  A    between atoms: _318  and  _321
REMARK  133  A    between atoms: _321  and  _322
REMARK  134  A    between atoms: _325  and  _327
REMARK  135  A    between atoms: _327  and  _328
REMARK  136  A    between atoms: _327  and  _330
REMARK  137  A    between atoms: _330  and  _331
REMARK  138  A    between atoms: _334  and  _336
REMARK  139  A    between atoms: _336  and  _337
REMARK  140  A    between atoms: _336  and  _339
REMARK  141  A    between atoms: _339  and  _340
REMARK  142  A    between atoms: _343  and  _345
REMARK  143  A    between atoms: _345  and  _346
REMARK  144  A    between atoms: _345  and  _348
REMARK  145  A    between atoms: _348  and  _349
REMARK  146  A    between atoms: _351  and  _353
REMARK  147  A    between atoms: _353  and  _354
REMARK  148  A    between atoms: _356  and  _358
REMARK  149  A    between atoms: _358  and  _359
REMARK  150  A    between atoms: _358  and  _361
REMARK  151  A    between atoms: _361  and  _362
REMARK  152  A    between atoms: _365  and  _367
REMARK  153  A    between atoms: _367  and  _368
REMARK  154  A    between atoms: _367  and  _370
REMARK  155  A    between atoms: _370  and  _371
REMARK  156  A    between atoms: _374  and  _376
REMARK  157  A    between atoms: _376  and  _377
REMARK  158  A    between atoms: _376  and  _379
REMARK  159  A    between atoms: _379  and  _380
REMARK  160  A    between atoms: _383  and  _385
REMARK  161  A    between atoms: _385  and  _386
REMARK  162  A    between atoms: _385  and  _388
REMARK  163  A    between atoms: _388  and  _389
REMARK  164  A    between atoms: _392  and  _394
REMARK  165  A    between atoms: _394  and  _395
REMARK  166  A    between atoms: _394  and  _397
REMARK  167  A    between atoms: _397  and  _398
REMARK  168  A    between atoms: _403  and  _404
REMARK  169  A    between atoms: _406  and  _408
REMARK  170  A    between atoms: _408  and  _409
REMARK  171  A    between atoms: _408  and  _411
REMARK  172  A    between atoms: _411  and  _412
REMARK  173  A    between atoms: _412  and  _413
REMARK  174  A    between atoms: _418  and  _420
REMARK  175  A    between atoms: _420  and  _421
REMARK  176  A    between atoms: _420  and  _423
REMARK  177  A    between atoms: _423  and  _424
REMARK  178  A    between atoms: _427  and  _429
REMARK  179  A    between atoms: _429  and  _430
REMARK  180  A    between atoms: _429  and  _432
REMARK  181  A    between atoms: _432  and  _433
REMARK  182  A    between atoms: _438  and  _439
REMARK  183  A    between atoms: _441  and  _443
REMARK  184  A    between atoms: _443  and  _444
REMARK  185  A    between atoms: _443  and  _446
REMARK  186  A    between atoms: _446  and  _447
REMARK  187  A    between atoms: _447  and  _448
REMARK  188  A    between atoms: _453  and  _455
REMARK  189  A    between atoms: _455  and  _456
REMARK  190  A    between atoms: _455  and  _458
REMARK  191  A    between atoms: _458  and  _459
REMARK  192  A    between atoms: _464  and  _466
REMARK  193  A    between atoms: _466  and  _467
REMARK  194  A    between atoms: _466  and  _469
REMARK  195  A    between atoms: _469  and  _470
REMARK  196  A    between atoms: _473  and  _475
REMARK  197  A    between atoms: _475  and  _476
REMARK  198  A    between atoms: _475  and  _478
REMARK  199  A    between atoms: _478  and  _479
REMARK  200  A    between atoms: _489  and  _491
REMARK  201  A    between atoms: _491  and  _492
REMARK  202  A    between atoms: _491  and  _494
REMARK  203  A    between atoms: _494  and  _495
REMARK  204  A    between atoms: _495  and  _496
REMARK  205  A    between atoms: _501  and  _503
REMARK  206  A    between atoms: _503  and  _504
REMARK  207  A    between atoms: _503  and  _506
REMARK  208  A    between atoms: _506  and  _507
REMARK  209  A    between atoms: _509  and  _511
REMARK  210  A    between atoms: _511  and  _512
REMARK  211  A    between atoms: _511  and  _514
REMARK  212  A    between atoms: _514  and  _515
REMARK  213  A    between atoms: _518  and  _520
REMARK  214  A    between atoms: _520  and  _521
REMARK  215  A    between atoms: _520  and  _523
REMARK  216  A    between atoms: _523  and  _524
REMARK  217  A    between atoms: _527  and  _529
REMARK  218  A    between atoms: _529  and  _530
REMARK  219  A    between atoms: _529  and  _532
REMARK  220  A    between atoms: _532  and  _533
REMARK  221  A    between atoms: _536  and  _538
REMARK  222  A    between atoms: _538  and  _539
REMARK  223  A    between atoms: _538  and  _541
REMARK  224  A    between atoms: _541  and  _542
REMARK  225  A    between atoms: _545  and  _547
REMARK  226  A    between atoms: _547  and  _548
REMARK  227  A    between atoms: _550  and  _552
REMARK  228  A    between atoms: _552  and  _553
REMARK  229  A    between atoms: _552  and  _555
REMARK  230  A    between atoms: _555  and  _556
REMARK                            x       y       z     vdW  Elec       q    Type
REMARK                         _______ _______ _______ _____ _____    ______ ____
ROOT
ATOM      1  CA  THR A   6      24.081  25.667  56.798  0.00  0.00    +0.176 C 
ENDROOT
BRANCH   1   2
ATOM      2  C   THR A   6      24.752  26.254  55.560  0.00  0.00    +0.243 C 
ATOM      3  O   THR A   6      25.976  26.429  55.536  0.00  0.00    -0.273 OA
ATOM      4  N   THR A   7      23.943  26.538  54.547  0.00  0.00    -0.295 N 
ATOM      5  H   THR A   7      22.916  26.478  54.696  0.00  0.00    +0.150 HD
BRANCH   4   6
ATOM      6  CA  THR A   7      24.442  26.934  53.223  0.00  0.00    +0.176 C 
BRANCH   6   7
ATOM      7  C   THR A   7      24.924  28.409  53.242  0.00  0.00    +0.243 C 
ATOM      8  N   LEU A   8      24.109  29.284  53.840  0.00  0.00    -0.297 N 
ATOM      9  H   LEU A   8      23.301  28.921  54.385  0.00  0.00    +0.150 HD
ATOM     10  O   THR A   7      26.011  28.728  52.717  0.00  0.00    -0.273 OA
BRANCH   8  11
ATOM     11  CA  LEU A   8      24.309  30.736  53.758  0.00  0.00    +0.149 C 
BRANCH  11  12
ATOM     12  C   LEU A   8      24.707  31.304  55.124  0.00  0.00    +0.241 C 
ATOM     13  O   LEU A   8      25.121  30.558  56.024  0.00  0.00    -0.273 OA
ATOM     14  N   THR A   9      24.610  32.620  55.273  0.00  0.00    -0.295 N 
ATOM     15  H   THR A   9      24.275  33.194  54.473  0.00  0.00    +0.150 HD
BRANCH  14  16
ATOM     16  CA  THR A   9      24.962  33.293  56.538  0.00  0.00    +0.176 C 
BRANCH  16  17
ATOM     17  C   THR A   9      23.705  33.978  57.088  0.00  0.00    +0.243 C 
ATOM     18  N   TYR A  10      23.464  33.887  58.407  0.00  0.00    -0.298 N 
ATOM     19  H   TYR A  10      24.167  33.430  59.023  0.00  0.00    +0.150 HD
ATOM     20  O   THR A   9      22.953  34.594  56.308  0.00  0.00    -0.273 OA
BRANCH  18  21
ATOM     21  CA  TYR A  10      22.222  34.422  59.000  0.00  0.00    +0.141 C 
BRANCH  21  22
ATOM     22  C   TYR A  10      22.557  35.354  60.159  0.00  0.00    +0.227 C 
ATOM     23  O   TYR A  10      23.395  35.019  60.995  0.00  0.00    -0.286 OA
ENDBRANCH  21  22
BRANCH  21  24
ATOM     24  CB  TYR A  10      21.286  33.273  59.472  0.00  0.00    +0.054 C 
BRANCH  24  25
ATOM     25  CG  TYR A  10      20.767  32.425  58.319  0.00  0.00    -0.020 A 
ATOM     26  CD2 TYR A  10      19.481  32.621  57.803  0.00  0.00    -0.001 A 
ATOM     27  CE2 TYR A  10      19.013  31.861  56.693  0.00  0.00    +0.036 A 
ATOM     28  CZ  TYR A  10      19.838  30.906  56.120  0.00  0.00    +0.134 A 
ATOM     29  CE1 TYR A  10      21.131  30.690  56.625  0.00  0.00    +0.036 A 
ATOM     30  CD1 TYR A  10      21.585  31.452  57.717  0.00  0.00    -0.001 A 
BRANCH  28  31
ATOM     31  OH  TYR A  10      19.381  30.146  55.044  0.00  0.00    -0.506 OA
ATOM     32  HH  TYR A  10      18.458  30.422  54.815  0.00  0.00    +0.292 HD
ENDBRANCH  28  31
ENDBRANCH  24  25
ENDBRANCH  21  24
ENDBRANCH  18  21
ENDBRANCH  16  17
BRANCH  16  33
ATOM     33  CB  THR A   9      26.098  34.318  56.272  0.00  0.00    +0.137 C 
ATOM     34  CG2 THR A   9      26.370  35.211  57.480  0.00  0.00    +0.034 C 
BRANCH  33  35
ATOM     35  OG1 THR A   9      27.312  33.607  55.963  0.00  0.00    -0.382 OA
ATOM     36  HG1 THR A   9      28.039  34.257  55.793  0.00  0.00    +0.210 HD
ENDBRANCH  33  35
ENDBRANCH  16  33
ENDBRANCH  14  16
ENDBRANCH  11  12
BRANCH  11  37
ATOM     37  CB  LEU A   8      23.030  31.417  53.209  0.00  0.00    +0.029 C 
BRANCH  37  38
ATOM     38  CG  LEU A   8      22.611  30.926  51.802  0.00  0.00    +0.002 C 
ATOM     39  CD2 LEU A   8      21.293  31.597  51.356  0.00  0.00    +0.000 C 
ATOM     40  CD1 LEU A   8      23.724  31.178  50.759  0.00  0.00    +0.000 C 
ENDBRANCH  37  38
ENDBRANCH  11  37
ENDBRANCH   8  11
ENDBRANCH   6   7
BRANCH   6  41
ATOM     41  CB  THR A   7      23.305  26.764  52.171  0.00  0.00    +0.137 C 
ATOM     42  CG2 THR A   7      23.804  27.023  50.726  0.00  0.00    +0.034 C 
BRANCH  41  43
ATOM     43  OG1 THR A   7      22.769  25.439  52.246  0.00  0.00    -0.382 OA
ATOM     44  HG1 THR A   7      23.487  24.783  52.062  0.00  0.00    +0.210 HD
ENDBRANCH  41  43
ENDBRANCH   6  41
ENDBRANCH   4   6
ENDBRANCH   1   2
BRANCH   1  46
ATOM     45  C   GLY A   5      24.393  23.274  57.276  0.00  0.00    +0.243 C 
ATOM     46  N   THR A   6      24.882  24.518  57.272  0.00  0.00    -0.295 N 
ATOM     47  H   THR A   6      25.851  24.682  57.611  0.00  0.00    +0.150 HD
ATOM     48  O   GLY A   5      23.187  23.020  57.091  0.00  0.00    -0.273 OA
BRANCH  45  49
ATOM     49  CA  GLY A   5      25.382  22.146  57.569  0.00  0.00    +0.176 C 
BRANCH  49  51
ATOM     50  C   SER A   4      27.733  22.883  57.408  0.00  0.00    +0.243 C 
ATOM     51  N   GLY A   5      26.661  22.590  58.156  0.00  0.00    -0.295 N 
ATOM     52  H   GLY A   5      26.733  22.679  59.190  0.00  0.00    +0.150 HD
ATOM     53  O   SER A   4      27.735  22.787  56.161  0.00  0.00    -0.273 OA
BRANCH  50  54
ATOM     54  CA  SER A   4      29.018  23.292  58.149  0.00  0.00    +0.178 C 
BRANCH  54  56
ATOM     55  C   ASP A   3      28.072  24.995  59.595  0.00  0.00    +0.241 C 
ATOM     56  N   SER A   4      28.790  23.896  59.471  0.00  0.00    -0.295 N 
ATOM     57  H   SER A   4      29.200  23.451  60.317  0.00  0.00    +0.150 HD
ATOM     58  O   ASP A   3      27.620  25.608  58.633  0.00  0.00    -0.273 OA
BRANCH  55  59
ATOM     59  CA  ASP A   3      27.771  25.444  61.014  0.00  0.00    +0.160 C 
BRANCH  59  62
ATOM     60  C   LEU A   2      29.568  26.586  62.242  0.00  0.00    +0.241 C 
ATOM     61  O   LEU A   2      30.103  25.530  62.632  0.00  0.00    -0.273 OA
ATOM     62  N   ASP A   3      28.559  26.626  61.380  0.00  0.00    -0.297 N 
ATOM     63  H   ASP A   3      28.316  27.538  60.944  0.00  0.00    +0.150 HD
BRANCH  60  64
ATOM     64  CA  LEU A   2      29.981  27.943  62.808  0.00  0.00    +0.149 C 
BRANCH  64  66
ATOM     65  C   LEU A   1      28.090  29.115  63.865  0.00  0.00    +0.238 C 
ATOM     66  N   LEU A   2      29.129  28.277  63.958  0.00  0.00    -0.297 N 
ATOM     67  H   LEU A   2      29.342  27.845  64.880  0.00  0.00    +0.150 HD
ATOM     68  O   LEU A   1      27.723  29.609  62.805  0.00  0.00    -0.274 OA
BRANCH  65  69
ATOM     69  CA  LEU A   1      27.301  29.411  65.153  0.00  0.00    +0.145 C 
BRANCH  69  70
ATOM     70  N   LEU A   1      27.124  30.854  65.333  0.00  0.00    -0.238 NA
ATOM     71  H   LEU A   1      26.190  31.274  65.152  0.00  0.00    +0.142 HD
ENDBRANCH  69  70
BRANCH  69  72
ATOM     72  CB  LEU A   1      25.925  28.720  65.070  0.00  0.00    +0.026 C 
BRANCH  72  73
ATOM     73  CG  LEU A   1      25.881  27.245  64.663  0.00  0.00    +0.002 C 
ATOM     74  CD2 LEU A   1      26.560  26.383  65.746  0.00  0.00    +0.000 C 
ATOM     75  CD1 LEU A   1      24.422  26.774  64.457  0.00  0.00    +0.000 C 
ENDBRANCH  72  73
ENDBRANCH  69  72
ENDBRANCH  65  69
ENDBRANCH  64  66
BRANCH  64  76
ATOM     76  CB  LEU A   2      31.462  27.966  63.213  0.00  0.00    +0.029 C 
BRANCH  76  77
ATOM     77  CG  LEU A   2      31.945  29.261  63.925  0.00  0.00    +0.002 C 
ATOM     78  CD2 LEU A   2      33.487  29.285  64.032  0.00  0.00    +0.000 C 
ATOM     79  CD1 LEU A   2      31.458  30.559  63.247  0.00  0.00    +0.000 C 
ENDBRANCH  76  77
ENDBRANCH  64  76
ENDBRANCH  60  64
ENDBRANCH  59  62
BRANCH  59  80
ATOM     80  CB  ASP A   3      26.266  25.760  61.069  0.00  0.00    +0.143 C 
BRANCH  80  81
ATOM     81  CG  ASP A   3      25.400  24.519  60.916  0.00  0.00    +0.367 C 
ATOM     82  OD2 ASP A   3      24.151  24.653  60.900  0.00  0.00    -0.246 OA
ATOM     83  OD1 ASP A   3      25.965  23.411  60.827  0.00  0.00    -0.246 OA
ENDBRANCH  80  81
ENDBRANCH  59  80
ENDBRANCH  55  59
ENDBRANCH  54  56
BRANCH  54  84
ATOM     84  CB  SER A   4      29.946  22.083  58.297  0.00  0.00    +0.166 C 
BRANCH  84  85
ATOM     85  OG  SER A   4      29.334  21.000  58.984  0.00  0.00    -0.380 OA
ATOM     86  H   SER A   4      28.531  20.706  58.485  0.00  0.00    +0.211 HD
ENDBRANCH  84  85
ENDBRANCH  54  84
ENDBRANCH  50  54
ENDBRANCH  49  51
ENDBRANCH  45  49
ENDBRANCH   1  46
BRANCH   1  87
ATOM     87  CB  THR A   6      23.960  26.744  57.866  0.00  0.00    +0.137 C 
ATOM     88  CG2 THR A   6      23.250  27.967  57.304  0.00  0.00    +0.034 C 
BRANCH  87  89
ATOM     89  OG1 THR A   6      23.209  26.207  58.981  0.00  0.00    -0.382 OA
ATOM     90  HG1 THR A   6      23.683  25.419  59.348  0.00  0.00    +0.210 HD
ENDBRANCH  87  89
ENDBRANCH   1  87
TORSDOF 39
REMARK  Name = ../refined-set-2016/3fv3/3fv3_pocket.pdb
REMARK  230 active torsions:
REMARK  status: ('A' for Active; 'I' for Inactive)
REMARK    1  A    between atoms: _1  and  _3
REMARK    2  A    between atoms: _3  and  _4
REMARK    3  A    between atoms: _7  and  _8
REMARK    4  A    between atoms: _13  and  _15
REMARK    5  A    between atoms: _15  and  _16
REMARK    6  A    between atoms: _15  and  _18
REMARK    7  A    between atoms: _18  and  _19
REMARK    8  A    between atoms: _21  and  _23
REMARK    9  A    between atoms: _23  and  _24
REMARK   10  A    between atoms: _23  and  _26
REMARK   11  A    between atoms: _26  and  _27
REMARK   12  A    between atoms: _32  and  _33
REMARK   13  A    between atoms: _35  and  _37
REMARK   14  A    between atoms: _37  and  _38
REMARK   15  A    between atoms: _37  and  _40
REMARK   16  A    between atoms: _40  and  _41
REMARK   17  A    between atoms: _44  and  _46
REMARK   18  A    between atoms: _46  and  _47
REMARK   19  A    between atoms: _46  and  _49
REMARK   20  A    between atoms: _49  and  _50
REMARK   21  A    between atoms: _53  and  _55
REMARK   22  A    between atoms: _55  and  _56
REMARK   23  A    between atoms: _55  and  _58
REMARK   24  A    between atoms: _58  and  _59
REMARK   25  A    between atoms: _62  and  _64
REMARK   26  A    between atoms: _64  and  _65
REMARK   27  A    between atoms: _64  and  _67
REMARK   28  A    between atoms: _67  and  _68
REMARK   29  A    between atoms: _71  and  _73
REMARK   30  A    between atoms: _73  and  _74
REMARK   31  A    between atoms: _76  and  _78
REMARK   32  A    between atoms: _78  and  _79
REMARK   33  A    between atoms: _78  and  _81
REMARK   34  A    between atoms: _81  and  _82
REMARK   35  A    between atoms: _84  and  _86
REMARK   36  A    between atoms: _86  and  _87
REMARK   37  A    between atoms: _86  and  _89
REMARK   38  A    between atoms: _89  and  _90
REMARK   39  A    between atoms: _92  and  _94
REMARK   40  A    between atoms: _94  and  _95
REMARK   41  A    between atoms: _94  and  _97
REMARK   42  A    between atoms: _97  and  _98
REMARK   43  A    between atoms: _101  and  _103
REMARK   44  A    between atoms: _103  and  _104
REMARK   45  A    between atoms: _103  and  _106
REMARK   46  A    between atoms: _106  and  _107
REMARK   47  A    between atoms: _117  and  _119
REMARK   48  A    between atoms: _119  and  _120
REMARK   49  A    between atoms: _119  and  _122
REMARK   50  A    between atoms: _122  and  _123
REMARK   51  A    between atoms: _126  and  _128
REMARK   52  A    between atoms: _128  and  _129
REMARK   53  A    between atoms: _128  and  _131
REMARK   54  A    between atoms: _131  and  _132
REMARK   55  A    between atoms: _132  and  _133
REMARK   56  A    between atoms: _133  and  _134
REMARK   57  A    between atoms: _143  and  _145
REMARK   58  A    between atoms: _145  and  _146
REMARK   59  A    between atoms: _145  and  _148
REMARK   60  A    between atoms: _148  and  _149
REMARK   61  A    between atoms: _154  and  _155
REMARK   62  A    between atoms: _157  and  _159
REMARK   63  A    between atoms: _159  and  _160
REMARK   64  A    between atoms: _162  and  _164
REMARK   65  A    between atoms: _164  and  _165
REMARK   66  A    between atoms: _164  and  _167
REMARK   67  A    between atoms: _167  and  _168
REMARK   68  A    between atoms: _171  and  _173
REMARK   69  A    between atoms: _173  and  _174
REMARK   70  A    between atoms: _176  and  _178
REMARK   71  A    between atoms: _178  and  _179
REMARK   72  A    between atoms: _178  and  _181
REMARK   73  A    between atoms: _181  and  _182
REMARK   74  A    between atoms: _184  and  _186
REMARK   75  A    between atoms: _186  and  _187
REMARK   76  A    between atoms: _186  and  _189
REMARK   77  A    between atoms: _189  and  _190
REMARK   78  A    between atoms: _193  and  _195
REMARK   79  A    between atoms: _195  and  _196
REMARK   80  A    between atoms: _195  and  _198
REMARK   81  A    between atoms: _198  and  _199
REMARK   82  A    between atoms: _201  and  _203
REMARK   83  A    between atoms: _203  and  _204
REMARK   84  A    between atoms: _203  and  _206
REMARK   85  A    between atoms: _209  and  _211
REMARK   86  A    between atoms: _211  and  _212
REMARK   87  A    between atoms: _211  and  _214
REMARK   88  A    between atoms: _214  and  _215
REMARK   89  A    between atoms: _218  and  _220
REMARK   90  A    between atoms: _220  and  _221
REMARK   91  A    between atoms: _220  and  _223
REMARK   92  A    between atoms: _223  and  _224
REMARK   93  A    between atoms: _224  and  _225
REMARK   94  A    between atoms: _230  and  _232
REMARK   95  A    between atoms: _232  and  _233
REMARK   96  A    between atoms: _235  and  _237
REMARK   97  A    between atoms: _237  and  _238
REMARK   98  A    between atoms: _237  and  _240
REMARK   99  A    between atoms: _240  and  _241
REMARK  100  A    between atoms: _244  and  _246
REMARK  101  A    between atoms: _246  and  _247
REMARK  102  A    between atoms: _246  and  _249
REMARK  103  A    between atoms: _249  and  _250
REMARK  104  A    between atoms: _253  and  _255
REMARK  105  A    between atoms: _255  and  _256
REMARK  106  A    between atoms: _255  and  _258
REMARK  107  A    between atoms: _258  and  _259
REMARK  108  A    between atoms: _262  and  _264
REMARK  109  A    between atoms: _264  and  _265
REMARK  110  A    between atoms: _264  and  _267
REMARK  111  A    between atoms: _267  and  _268
REMARK  112  A    between atoms: _273  and  _275
REMARK  113  A    between atoms: _275  and  _276
REMARK  114  A    between atoms: _275  and  _278
REMARK  115  A    between atoms: _278  and  _279
REMARK  116  A    between atoms: _279  and  _280
REMARK  117  A    between atoms: _283  and  _285
REMARK  118  A    between atoms: _285  and  _286
REMARK  119  A    between atoms: _289  and  _291
REMARK  120  A    between atoms: _291  and  _292
REMARK  121  A    between atoms: _291  and  _294
REMARK  122  A    between atoms: _294  and  _295
REMARK  123  A    between atoms: _295  and  _296
REMARK  124  A    between atoms: _301  and  _303
REMARK  125  A    between atoms: _303  and  _304
REMARK  126  A    between atoms: _307  and  _309
REMARK  127  A    between atoms: _309  and  _310
REMARK  128  A    between atoms: _309  and  _312
REMARK  129  A    between atoms: _312  and  _313
REMARK  130  A    between atoms: _316  and  _318
REMARK  131  A    between atoms: _318  and  _319
REMARK  132  A    between atoms: _318  and  _321
REMARK  133  A    between atoms: _321  and  _322
REMARK  134  A    between atoms: _325  and  _327
REMARK  135  A    between atoms: _327  and  _328
REMARK  136  A    between atoms: _327  and  _330
REMARK  137  A    between atoms: _330  and  _331
REMARK  138  A    between atoms: _334  and  _336
REMARK  139  A    between atoms: _336  and  _337
REMARK  140  A    between atoms: _336  and  _339
REMARK  141  A    between atoms: _339  and  _340
REMARK  142  A    between atoms: _343  and  _345
REMARK  143  A    between atoms: _345  and  _346
REMARK  144  A    between atoms: _345  and  _348
REMARK  145  A    between atoms: _348  and  _349
REMARK  146  A    between atoms: _351  and  _353
REMARK  147  A    between atoms: _353  and  _354
REMARK  148  A    between atoms: _356  and  _358
REMARK  149  A    between atoms: _358  and  _359
REMARK  150  A    between atoms: _358  and  _361
REMARK  151  A    between atoms: _361  and  _362
REMARK  152  A    between atoms: _365  and  _367
REMARK  153  A    between atoms: _367  and  _368
REMARK  154  A    between atoms: _367  and  _370
REMARK  155  A    between atoms: _370  and  _371
REMARK  156  A    between atoms: _374  and  _376
REMARK  157  A    between atoms: _376  and  _377
REMARK  158  A    between atoms: _376  and  _379
REMARK  159  A    between atoms: _379  and  _380
REMARK  160  A    between atoms: _383  and  _385
REMARK  161  A    between atoms: _385  and  _386
REMARK  162  A    between atoms: _385  and  _388
REMARK  163  A    between atoms: _388  and  _389
REMARK  164  A    between atoms: _392  and  _394
REMARK  165  A    between atoms: _394  and  _395
REMARK  166  A    between atoms: _394  and  _397
REMARK  167  A    between atoms: _397  and  _398
REMARK  168  A    between atoms: _403  and  _404
REMARK  169  A    between atoms: _406  and  _408
REMARK  170  A    between atoms: _408  and  _409
REMARK  171  A    between atoms: _408  and  _411
REMARK  172  A    between atoms: _411  and  _412
REMARK  173  A    between atoms: _412  and  _413
REMARK  174  A    between atoms: _418  and  _420
REMARK  175  A    between atoms: _420  and  _421
REMARK  176  A    between atoms: _420  and  _423
REMARK  177  A    between atoms: _423  and  _424
REMARK  178  A    between atoms: _427  and  _429
REMARK  179  A    between atoms: _429  and  _430
REMARK  180  A    between atoms: _429  and  _432
REMARK  181  A    between atoms: _432  and  _433
REMARK  182  A    between atoms: _438  and  _439
REMARK  183  A    between atoms: _441  and  _443
REMARK  184  A    between atoms: _443  and  _444
REMARK  185  A    between atoms: _443  and  _446
REMARK  186  A    between atoms: _446  and  _447
REMARK  187  A    between atoms: _447  and  _448
REMARK  188  A    between atoms: _453  and  _455
REMARK  189  A    between atoms: _455  and  _456
REMARK  190  A    between atoms: _455  and  _458
REMARK  191  A    between atoms: _458  and  _459
REMARK  192  A    between atoms: _464  and  _466
REMARK  193  A    between atoms: _466  and  _467
REMARK  194  A    between atoms: _466  and  _469
REMARK  195  A    between atoms: _469  and  _470
REMARK  196  A    between atoms: _473  and  _475
REMARK  197  A    between atoms: _475  and  _476
REMARK  198  A    between atoms: _475  and  _478
REMARK  199  A    between atoms: _478  and  _479
REMARK  200  A    between atoms: _489  and  _491
REMARK  201  A    between atoms: _491  and  _492
REMARK  202  A    between atoms: _491  and  _494
REMARK  203  A    between atoms: _494  and  _495
REMARK  204  A    between atoms: _495  and  _496
REMARK  205  A    between atoms: _501  and  _503
REMARK  206  A    between atoms: _503  and  _504
REMARK  207  A    between atoms: _503  and  _506
REMARK  208  A    between atoms: _506  and  _507
REMARK  209  A    between atoms: _509  and  _511
REMARK  210  A    between atoms: _511  and  _512
REMARK  211  A    between atoms: _511  and  _514
REMARK  212  A    between atoms: _514  and  _515
REMARK  213  A    between atoms: _518  and  _520
REMARK  214  A    between atoms: _520  and  _521
REMARK  215  A    between atoms: _520  and  _523
REMARK  216  A    between atoms: _523  and  _524
REMARK  217  A    between atoms: _527  and  _529
REMARK  218  A    between atoms: _529  and  _530
REMARK  219  A    between atoms: _529  and  _532
REMARK  220  A    between atoms: _532  and  _533
REMARK  221  A    between atoms: _536  and  _538
REMARK  222  A    between atoms: _538  and  _539
REMARK  223  A    between atoms: _538  and  _541
REMARK  224  A    between atoms: _541  and  _542
REMARK  225  A    between atoms: _545  and  _547
REMARK  226  A    between atoms: _547  and  _548
REMARK  227  A    between atoms: _550  and  _552
REMARK  228  A    between atoms: _552  and  _553
REMARK  229  A    between atoms: _552  and  _555
REMARK  230  A    between atoms: _555  and  _556
REMARK                            x       y       z     vdW  Elec       q    Type
REMARK                         _______ _______ _______ _____ _____    ______ ____
ROOT
ATOM      1  CB  GLN A   1       9.983  32.803  54.497  0.00  0.00    +0.035 C 
ENDROOT
BRANCH   1   2
ATOM      2  CA  GLN A   1       9.620  34.076  55.280  0.00  0.00    +0.134 C 
BRANCH   2   3
ATOM      3  N   GLN A   1       8.234  34.107  55.680  0.00  0.00    -0.239 NA
ATOM      4  H   GLN A   1       7.488  34.249  54.970  0.00  0.00    +0.142 HD
ENDBRANCH   2   3
BRANCH   2   5
ATOM      5  C   GLN A   1       9.977  35.292  54.464  0.00  0.00    +0.224 C 
ATOM      6  O   GLN A   1       9.298  35.616  53.480  0.00  0.00    -0.287 OA
ENDBRANCH   2   5
ENDBRANCH   1   2
BRANCH   1   7
ATOM      7  CG  GLN A   1      11.519  32.671  54.306  0.00  0.00    +0.087 C 
BRANCH   7   8
ATOM      8  CD  GLN A   1      11.957  31.431  53.534  0.00  0.00    +0.219 C 
ATOM      9  NE2 GLN A   1      13.152  30.942  53.841  0.00  0.00    -0.329 N 
ATOM     10 HE21 GLN A   1      13.725  31.395  54.581  0.00  0.00    +0.145 HD
ATOM     11 HE22 GLN A   1      13.516  30.106  53.341  0.00  0.00    +0.145 HD
ATOM     12  OE1 GLN A   1      11.241  30.930  52.665  0.00  0.00    -0.275 OA
ENDBRANCH   7   8
ENDBRANCH   1   7
TORSDOF 5
REMARK  Name = ../refined-set-2016/3fv3/3fv3_pocket.pdb
REMARK  230 active torsions:
REMARK  status: ('A' for Active; 'I' for Inactive)
REMARK    1  A    between atoms: _1  and  _3
REMARK    2  A    between atoms: _3  and  _4
REMARK    3  A    between atoms: _7  and  _8
REMARK    4  A    between atoms: _13  and  _15
REMARK    5  A    between atoms: _15  and  _16
REMARK    6  A    between atoms: _15  and  _18
REMARK    7  A    between atoms: _18  and  _19
REMARK    8  A    between atoms: _21  and  _23
REMARK    9  A    between atoms: _23  and  _24
REMARK   10  A    between atoms: _23  and  _26
REMARK   11  A    between atoms: _26  and  _27
REMARK   12  A    between atoms: _32  and  _33
REMARK   13  A    between atoms: _35  and  _37
REMARK   14  A    between atoms: _37  and  _38
REMARK   15  A    between atoms: _37  and  _40
REMARK   16  A    between atoms: _40  and  _41
REMARK   17  A    between atoms: _44  and  _46
REMARK   18  A    between atoms: _46  and  _47
REMARK   19  A    between atoms: _46  and  _49
REMARK   20  A    between atoms: _49  and  _50
REMARK   21  A    between atoms: _53  and  _55
REMARK   22  A    between atoms: _55  and  _56
REMARK   23  A    between atoms: _55  and  _58
REMARK   24  A    between atoms: _58  and  _59
REMARK   25  A    between atoms: _62  and  _64
REMARK   26  A    between atoms: _64  and  _65
REMARK   27  A    between atoms: _64  and  _67
REMARK   28  A    between atoms: _67  and  _68
REMARK   29  A    between atoms: _71  and  _73
REMARK   30  A    between atoms: _73  and  _74
REMARK   31  A    between atoms: _76  and  _78
REMARK   32  A    between atoms: _78  and  _79
REMARK   33  A    between atoms: _78  and  _81
REMARK   34  A    between atoms: _81  and  _82
REMARK   35  A    between atoms: _84  and  _86
REMARK   36  A    between atoms: _86  and  _87
REMARK   37  A    between atoms: _86  and  _89
REMARK   38  A    between atoms: _89  and  _90
REMARK   39  A    between atoms: _92  and  _94
REMARK   40  A    between atoms: _94  and  _95
REMARK   41  A    between atoms: _94  and  _97
REMARK   42  A    between atoms: _97  and  _98
REMARK   43  A    between atoms: _101  and  _103
REMARK   44  A    between atoms: _103  and  _104
REMARK   45  A    between atoms: _103  and  _106
REMARK   46  A    between atoms: _106  and  _107
REMARK   47  A    between atoms: _117  and  _119
REMARK   48  A    between atoms: _119  and  _120
REMARK   49  A    between atoms: _119  and  _122
REMARK   50  A    between atoms: _122  and  _123
REMARK   51  A    between atoms: _126  and  _128
REMARK   52  A    between atoms: _128  and  _129
REMARK   53  A    between atoms: _128  and  _131
REMARK   54  A    between atoms: _131  and  _132
REMARK   55  A    between atoms: _132  and  _133
REMARK   56  A    between atoms: _133  and  _134
REMARK   57  A    between atoms: _143  and  _145
REMARK   58  A    between atoms: _145  and  _146
REMARK   59  A    between atoms: _145  and  _148
REMARK   60  A    between atoms: _148  and  _149
REMARK   61  A    between atoms: _154  and  _155
REMARK   62  A    between atoms: _157  and  _159
REMARK   63  A    between atoms: _159  and  _160
REMARK   64  A    between atoms: _162  and  _164
REMARK   65  A    between atoms: _164  and  _165
REMARK   66  A    between atoms: _164  and  _167
REMARK   67  A    between atoms: _167  and  _168
REMARK   68  A    between atoms: _171  and  _173
REMARK   69  A    between atoms: _173  and  _174
REMARK   70  A    between atoms: _176  and  _178
REMARK   71  A    between atoms: _178  and  _179
REMARK   72  A    between atoms: _178  and  _181
REMARK   73  A    between atoms: _181  and  _182
REMARK   74  A    between atoms: _184  and  _186
REMARK   75  A    between atoms: _186  and  _187
REMARK   76  A    between atoms: _186  and  _189
REMARK   77  A    between atoms: _189  and  _190
REMARK   78  A    between atoms: _193  and  _195
REMARK   79  A    between atoms: _195  and  _196
REMARK   80  A    between atoms: _195  and  _198
REMARK   81  A    between atoms: _198  and  _199
REMARK   82  A    between atoms: _201  and  _203
REMARK   83  A    between atoms: _203  and  _204
REMARK   84  A    between atoms: _203  and  _206
REMARK   85  A    between atoms: _209  and  _211
REMARK   86  A    between atoms: _211  and  _212
REMARK   87  A    between atoms: _211  and  _214
REMARK   88  A    between atoms: _214  and  _215
REMARK   89  A    between atoms: _218  and  _220
REMARK   90  A    between atoms: _220  and  _221
REMARK   91  A    between atoms: _220  and  _223
REMARK   92  A    between atoms: _223  and  _224
REMARK   93  A    between atoms: _224  and  _225
REMARK   94  A    between atoms: _230  and  _232
REMARK   95  A    between atoms: _232  and  _233
REMARK   96  A    between atoms: _235  and  _237
REMARK   97  A    between atoms: _237  and  _238
REMARK   98  A    between atoms: _237  and  _240
REMARK   99  A    between atoms: _240  and  _241
REMARK  100  A    between atoms: _244  and  _246
REMARK  101  A    between atoms: _246  and  _247
REMARK  102  A    between atoms: _246  and  _249
REMARK  103  A    between atoms: _249  and  _250
REMARK  104  A    between atoms: _253  and  _255
REMARK  105  A    between atoms: _255  and  _256
REMARK  106  A    between atoms: _255  and  _258
REMARK  107  A    between atoms: _258  and  _259
REMARK  108  A    between atoms: _262  and  _264
REMARK  109  A    between atoms: _264  and  _265
REMARK  110  A    between atoms: _264  and  _267
REMARK  111  A    between atoms: _267  and  _268
REMARK  112  A    between atoms: _273  and  _275
REMARK  113  A    between atoms: _275  and  _276
REMARK  114  A    between atoms: _275  and  _278
REMARK  115  A    between atoms: _278  and  _279
REMARK  116  A    between atoms: _279  and  _280
REMARK  117  A    between atoms: _283  and  _285
REMARK  118  A    between atoms: _285  and  _286
REMARK  119  A    between atoms: _289  and  _291
REMARK  120  A    between atoms: _291  and  _292
REMARK  121  A    between atoms: _291  and  _294
REMARK  122  A    between atoms: _294  and  _295
REMARK  123  A    between atoms: _295  and  _296
REMARK  124  A    between atoms: _301  and  _303
REMARK  125  A    between atoms: _303  and  _304
REMARK  126  A    between atoms: _307  and  _309
REMARK  127  A    between atoms: _309  and  _310
REMARK  128  A    between atoms: _309  and  _312
REMARK  129  A    between atoms: _312  and  _313
REMARK  130  A    between atoms: _316  and  _318
REMARK  131  A    between atoms: _318  and  _319
REMARK  132  A    between atoms: _318  and  _321
REMARK  133  A    between atoms: _321  and  _322
REMARK  134  A    between atoms: _325  and  _327
REMARK  135  A    between atoms: _327  and  _328
REMARK  136  A    between atoms: _327  and  _330
REMARK  137  A    between atoms: _330  and  _331
REMARK  138  A    between atoms: _334  and  _336
REMARK  139  A    between atoms: _336  and  _337
REMARK  140  A    between atoms: _336  and  _339
REMARK  141  A    between atoms: _339  and  _340
REMARK  142  A    between atoms: _343  and  _345
REMARK  143  A    between atoms: _345  and  _346
REMARK  144  A    between atoms: _345  and  _348
REMARK  145  A    between atoms: _348  and  _349
REMARK  146  A    between atoms: _351  and  _353
REMARK  147  A    between atoms: _353  and  _354
REMARK  148  A    between atoms: _356  and  _358
REMARK  149  A    between atoms: _358  and  _359
REMARK  150  A    between atoms: _358  and  _361
REMARK  151  A    between atoms: _361  and  _362
REMARK  152  A    between atoms: _365  and  _367
REMARK  153  A    between atoms: _367  and  _368
REMARK  154  A    between atoms: _367  and  _370
REMARK  155  A    between atoms: _370  and  _371
REMARK  156  A    between atoms: _374  and  _376
REMARK  157  A    between atoms: _376  and  _377
REMARK  158  A    between atoms: _376  and  _379
REMARK  159  A    between atoms: _379  and  _380
REMARK  160  A    between atoms: _383  and  _385
REMARK  161  A    between atoms: _385  and  _386
REMARK  162  A    between atoms: _385  and  _388
REMARK  163  A    between atoms: _388  and  _389
REMARK  164  A    between atoms: _392  and  _394
REMARK  165  A    between atoms: _394  and  _395
REMARK  166  A    between atoms: _394  and  _397
REMARK  167  A    between atoms: _397  and  _398
REMARK  168  A    between atoms: _403  and  _404
REMARK  169  A    between atoms: _406  and  _408
REMARK  170  A    between atoms: _408  and  _409
REMARK  171  A    between atoms: _408  and  _411
REMARK  172  A    between atoms: _411  and  _412
REMARK  173  A    between atoms: _412  and  _413
REMARK  174  A    between atoms: _418  and  _420
REMARK  175  A    between atoms: _420  and  _421
REMARK  176  A    between atoms: _420  and  _423
REMARK  177  A    between atoms: _423  and  _424
REMARK  178  A    between atoms: _427  and  _429
REMARK  179  A    between atoms: _429  and  _430
REMARK  180  A    between atoms: _429  and  _432
REMARK  181  A    between atoms: _432  and  _433
REMARK  182  A    between atoms: _438  and  _439
REMARK  183  A    between atoms: _441  and  _443
REMARK  184  A    between atoms: _443  and  _444
REMARK  185  A    between atoms: _443  and  _446
REMARK  186  A    between atoms: _446  and  _447
REMARK  187  A    between atoms: _447  and  _448
REMARK  188  A    between atoms: _453  and  _455
REMARK  189  A    between atoms: _455  and  _456
REMARK  190  A    between atoms: _455  and  _458
REMARK  191  A    between atoms: _458  and  _459
REMARK  192  A    between atoms: _464  and  _466
REMARK  193  A    between atoms: _466  and  _467
REMARK  194  A    between atoms: _466  and  _469
REMARK  195  A    between atoms: _469  and  _470
REMARK  196  A    between atoms: _473  and  _475
REMARK  197  A    between atoms: _475  and  _476
REMARK  198  A    between atoms: _475  and  _478
REMARK  199  A    between atoms: _478  and  _479
REMARK  200  A    between atoms: _489  and  _491
REMARK  201  A    between atoms: _491  and  _492
REMARK  202  A    between atoms: _491  and  _494
REMARK  203  A    between atoms: _494  and  _495
REMARK  204  A    between atoms: _495  and  _496
REMARK  205  A    between atoms: _501  and  _503
REMARK  206  A    between atoms: _503  and  _504
REMARK  207  A    between atoms: _503  and  _506
REMARK  208  A    between atoms: _506  and  _507
REMARK  209  A    between atoms: _509  and  _511
REMARK  210  A    between atoms: _511  and  _512
REMARK  211  A    between atoms: _511  and  _514
REMARK  212  A    between atoms: _514  and  _515
REMARK  213  A    between atoms: _518  and  _520
REMARK  214  A    between atoms: _520  and  _521
REMARK  215  A    between atoms: _520  and  _523
REMARK  216  A    between atoms: _523  and  _524
REMARK  217  A    between atoms: _527  and  _529
REMARK  218  A    between atoms: _529  and  _530
REMARK  219  A    between atoms: _529  and  _532
REMARK  220  A    between atoms: _532  and  _533
REMARK  221  A    between atoms: _536  and  _538
REMARK  222  A    between atoms: _538  and  _539
REMARK  223  A    between atoms: _538  and  _541
REMARK  224  A    between atoms: _541  and  _542
REMARK  225  A    between atoms: _545  and  _547
REMARK  226  A    between atoms: _547  and  _548
REMARK  227  A    between atoms: _550  and  _552
REMARK  228  A    between atoms: _552  and  _553
REMARK  229  A    between atoms: _552  and  _555
REMARK  230  A    between atoms: _555  and  _556
REMARK                            x       y       z     vdW  Elec       q    Type
REMARK                         _______ _______ _______ _____ _____    ______ ____
ROOT
ATOM      1  CA  LEU A   1      14.703  36.766  51.986  0.00  0.00    +0.133 C 
ENDROOT
BRANCH   1   2
ATOM      2  N   LEU A   1      13.349  36.942  52.482  0.00  0.00    -0.239 NA
ATOM      3  H   LEU A   1      12.597  37.206  51.813  0.00  0.00    +0.142 HD
ENDBRANCH   1   2
BRANCH   1   4
ATOM      4  C   LEU A   1      15.240  38.040  51.335  0.00  0.00    +0.224 C 
ATOM      5  O   LEU A   1      14.510  38.741  50.632  0.00  0.00    -0.287 OA
ENDBRANCH   1   4
BRANCH   1   6
ATOM      6  CB  LEU A   1      14.760  35.611  50.975  0.00  0.00    +0.025 C 
BRANCH   6   7
ATOM      7  CG  LEU A   1      14.431  34.216  51.525  0.00  0.00    +0.002 C 
ATOM      8  CD2 LEU A   1      15.438  33.792  52.614  0.00  0.00    +0.000 C 
ATOM      9  CD1 LEU A   1      14.372  33.189  50.400  0.00  0.00    +0.000 C 
ENDBRANCH   6   7
ENDBRANCH   1   6
TORSDOF 4
REMARK  Name = ../refined-set-2016/3fv3/3fv3_pocket.pdb
REMARK  230 active torsions:
REMARK  status: ('A' for Active; 'I' for Inactive)
REMARK    1  A    between atoms: _1  and  _3
REMARK    2  A    between atoms: _3  and  _4
REMARK    3  A    between atoms: _7  and  _8
REMARK    4  A    between atoms: _13  and  _15
REMARK    5  A    between atoms: _15  and  _16
REMARK    6  A    between atoms: _15  and  _18
REMARK    7  A    between atoms: _18  and  _19
REMARK    8  A    between atoms: _21  and  _23
REMARK    9  A    between atoms: _23  and  _24
REMARK   10  A    between atoms: _23  and  _26
REMARK   11  A    between atoms: _26  and  _27
REMARK   12  A    between atoms: _32  and  _33
REMARK   13  A    between atoms: _35  and  _37
REMARK   14  A    between atoms: _37  and  _38
REMARK   15  A    between atoms: _37  and  _40
REMARK   16  A    between atoms: _40  and  _41
REMARK   17  A    between atoms: _44  and  _46
REMARK   18  A    between atoms: _46  and  _47
REMARK   19  A    between atoms: _46  and  _49
REMARK   20  A    between atoms: _49  and  _50
REMARK   21  A    between atoms: _53  and  _55
REMARK   22  A    between atoms: _55  and  _56
REMARK   23  A    between atoms: _55  and  _58
REMARK   24  A    between atoms: _58  and  _59
REMARK   25  A    between atoms: _62  and  _64
REMARK   26  A    between atoms: _64  and  _65
REMARK   27  A    between atoms: _64  and  _67
REMARK   28  A    between atoms: _67  and  _68
REMARK   29  A    between atoms: _71  and  _73
REMARK   30  A    between atoms: _73  and  _74
REMARK   31  A    between atoms: _76  and  _78
REMARK   32  A    between atoms: _78  and  _79
REMARK   33  A    between atoms: _78  and  _81
REMARK   34  A    between atoms: _81  and  _82
REMARK   35  A    between atoms: _84  and  _86
REMARK   36  A    between atoms: _86  and  _87
REMARK   37  A    between atoms: _86  and  _89
REMARK   38  A    between atoms: _89  and  _90
REMARK   39  A    between atoms: _92  and  _94
REMARK   40  A    between atoms: _94  and  _95
REMARK   41  A    between atoms: _94  and  _97
REMARK   42  A    between atoms: _97  and  _98
REMARK   43  A    between atoms: _101  and  _103
REMARK   44  A    between atoms: _103  and  _104
REMARK   45  A    between atoms: _103  and  _106
REMARK   46  A    between atoms: _106  and  _107
REMARK   47  A    between atoms: _117  and  _119
REMARK   48  A    between atoms: _119  and  _120
REMARK   49  A    between atoms: _119  and  _122
REMARK   50  A    between atoms: _122  and  _123
REMARK   51  A    between atoms: _126  and  _128
REMARK   52  A    between atoms: _128  and  _129
REMARK   53  A    between atoms: _128  and  _131
REMARK   54  A    between atoms: _131  and  _132
REMARK   55  A    between atoms: _132  and  _133
REMARK   56  A    between atoms: _133  and  _134
REMARK   57  A    between atoms: _143  and  _145
REMARK   58  A    between atoms: _145  and  _146
REMARK   59  A    between atoms: _145  and  _148
REMARK   60  A    between atoms: _148  and  _149
REMARK   61  A    between atoms: _154  and  _155
REMARK   62  A    between atoms: _157  and  _159
REMARK   63  A    between atoms: _159  and  _160
REMARK   64  A    between atoms: _162  and  _164
REMARK   65  A    between atoms: _164  and  _165
REMARK   66  A    between atoms: _164  and  _167
REMARK   67  A    between atoms: _167  and  _168
REMARK   68  A    between atoms: _171  and  _173
REMARK   69  A    between atoms: _173  and  _174
REMARK   70  A    between atoms: _176  and  _178
REMARK   71  A    between atoms: _178  and  _179
REMARK   72  A    between atoms: _178  and  _181
REMARK   73  A    between atoms: _181  and  _182
REMARK   74  A    between atoms: _184  and  _186
REMARK   75  A    between atoms: _186  and  _187
REMARK   76  A    between atoms: _186  and  _189
REMARK   77  A    between atoms: _189  and  _190
REMARK   78  A    between atoms: _193  and  _195
REMARK   79  A    between atoms: _195  and  _196
REMARK   80  A    between atoms: _195  and  _198
REMARK   81  A    between atoms: _198  and  _199
REMARK   82  A    between atoms: _201  and  _203
REMARK   83  A    between atoms: _203  and  _204
REMARK   84  A    between atoms: _203  and  _206
REMARK   85  A    between atoms: _209  and  _211
REMARK   86  A    between atoms: _211  and  _212
REMARK   87  A    between atoms: _211  and  _214
REMARK   88  A    between atoms: _214  and  _215
REMARK   89  A    between atoms: _218  and  _220
REMARK   90  A    between atoms: _220  and  _221
REMARK   91  A    between atoms: _220  and  _223
REMARK   92  A    between atoms: _223  and  _224
REMARK   93  A    between atoms: _224  and  _225
REMARK   94  A    between atoms: _230  and  _232
REMARK   95  A    between atoms: _232  and  _233
REMARK   96  A    between atoms: _235  and  _237
REMARK   97  A    between atoms: _237  and  _238
REMARK   98  A    between atoms: _237  and  _240
REMARK   99  A    between atoms: _240  and  _241
REMARK  100  A    between atoms: _244  and  _246
REMARK  101  A    between atoms: _246  and  _247
REMARK  102  A    between atoms: _246  and  _249
REMARK  103  A    between atoms: _249  and  _250
REMARK  104  A    between atoms: _253  and  _255
REMARK  105  A    between atoms: _255  and  _256
REMARK  106  A    between atoms: _255  and  _258
REMARK  107  A    between atoms: _258  and  _259
REMARK  108  A    between atoms: _262  and  _264
REMARK  109  A    between atoms: _264  and  _265
REMARK  110  A    between atoms: _264  and  _267
REMARK  111  A    between atoms: _267  and  _268
REMARK  112  A    between atoms: _273  and  _275
REMARK  113  A    between atoms: _275  and  _276
REMARK  114  A    between atoms: _275  and  _278
REMARK  115  A    between atoms: _278  and  _279
REMARK  116  A    between atoms: _279  and  _280
REMARK  117  A    between atoms: _283  and  _285
REMARK  118  A    between atoms: _285  and  _286
REMARK  119  A    between atoms: _289  and  _291
REMARK  120  A    between atoms: _291  and  _292
REMARK  121  A    between atoms: _291  and  _294
REMARK  122  A    between atoms: _294  and  _295
REMARK  123  A    between atoms: _295  and  _296
REMARK  124  A    between atoms: _301  and  _303
REMARK  125  A    between atoms: _303  and  _304
REMARK  126  A    between atoms: _307  and  _309
REMARK  127  A    between atoms: _309  and  _310
REMARK  128  A    between atoms: _309  and  _312
REMARK  129  A    between atoms: _312  and  _313
REMARK  130  A    between atoms: _316  and  _318
REMARK  131  A    between atoms: _318  and  _319
REMARK  132  A    between atoms: _318  and  _321
REMARK  133  A    between atoms: _321  and  _322
REMARK  134  A    between atoms: _325  and  _327
REMARK  135  A    between atoms: _327  and  _328
REMARK  136  A    between atoms: _327  and  _330
REMARK  137  A    between atoms: _330  and  _331
REMARK  138  A    between atoms: _334  and  _336
REMARK  139  A    between atoms: _336  and  _337
REMARK  140  A    between atoms: _336  and  _339
REMARK  141  A    between atoms: _339  and  _340
REMARK  142  A    between atoms: _343  and  _345
REMARK  143  A    between atoms: _345  and  _346
REMARK  144  A    between atoms: _345  and  _348
REMARK  145  A    between atoms: _348  and  _349
REMARK  146  A    between atoms: _351  and  _353
REMARK  147  A    between atoms: _353  and  _354
REMARK  148  A    between atoms: _356  and  _358
REMARK  149  A    between atoms: _358  and  _359
REMARK  150  A    between atoms: _358  and  _361
REMARK  151  A    between atoms: _361  and  _362
REMARK  152  A    between atoms: _365  and  _367
REMARK  153  A    between atoms: _367  and  _368
REMARK  154  A    between atoms: _367  and  _370
REMARK  155  A    between atoms: _370  and  _371
REMARK  156  A    between atoms: _374  and  _376
REMARK  157  A    between atoms: _376  and  _377
REMARK  158  A    between atoms: _376  and  _379
REMARK  159  A    between atoms: _379  and  _380
REMARK  160  A    between atoms: _383  and  _385
REMARK  161  A    between atoms: _385  and  _386
REMARK  162  A    between atoms: _385  and  _388
REMARK  163  A    between atoms: _388  and  _389
REMARK  164  A    between atoms: _392  and  _394
REMARK  165  A    between atoms: _394  and  _395
REMARK  166  A    between atoms: _394  and  _397
REMARK  167  A    between atoms: _397  and  _398
REMARK  168  A    between atoms: _403  and  _404
REMARK  169  A    between atoms: _406  and  _408
REMARK  170  A    between atoms: _408  and  _409
REMARK  171  A    between atoms: _408  and  _411
REMARK  172  A    between atoms: _411  and  _412
REMARK  173  A    between atoms: _412  and  _413
REMARK  174  A    between atoms: _418  and  _420
REMARK  175  A    between atoms: _420  and  _421
REMARK  176  A    between atoms: _420  and  _423
REMARK  177  A    between atoms: _423  and  _424
REMARK  178  A    between atoms: _427  and  _429
REMARK  179  A    between atoms: _429  and  _430
REMARK  180  A    between atoms: _429  and  _432
REMARK  181  A    between atoms: _432  and  _433
REMARK  182  A    between atoms: _438  and  _439
REMARK  183  A    between atoms: _441  and  _443
REMARK  184  A    between atoms: _443  and  _444
REMARK  185  A    between atoms: _443  and  _446
REMARK  186  A    between atoms: _446  and  _447
REMARK  187  A    between atoms: _447  and  _448
REMARK  188  A    between atoms: _453  and  _455
REMARK  189  A    between atoms: _455  and  _456
REMARK  190  A    between atoms: _455  and  _458
REMARK  191  A    between atoms: _458  and  _459
REMARK  192  A    between atoms: _464  and  _466
REMARK  193  A    between atoms: _466  and  _467
REMARK  194  A    between atoms: _466  and  _469
REMARK  195  A    between atoms: _469  and  _470
REMARK  196  A    between atoms: _473  and  _475
REMARK  197  A    between atoms: _475  and  _476
REMARK  198  A    between atoms: _475  and  _478
REMARK  199  A    between atoms: _478  and  _479
REMARK  200  A    between atoms: _489  and  _491
REMARK  201  A    between atoms: _491  and  _492
REMARK  202  A    between atoms: _491  and  _494
REMARK  203  A    between atoms: _494  and  _495
REMARK  204  A    between atoms: _495  and  _496
REMARK  205  A    between atoms: _501  and  _503
REMARK  206  A    between atoms: _503  and  _504
REMARK  207  A    between atoms: _503  and  _506
REMARK  208  A    between atoms: _506  and  _507
REMARK  209  A    between atoms: _509  and  _511
REMARK  210  A    between atoms: _511  and  _512
REMARK  211  A    between atoms: _511  and  _514
REMARK  212  A    between atoms: _514  and  _515
REMARK  213  A    between atoms: _518  and  _520
REMARK  214  A    between atoms: _520  and  _521
REMARK  215  A    between atoms: _520  and  _523
REMARK  216  A    between atoms: _523  and  _524
REMARK  217  A    between atoms: _527  and  _529
REMARK  218  A    between atoms: _529  and  _530
REMARK  219  A    between atoms: _529  and  _532
REMARK  220  A    between atoms: _532  and  _533
REMARK  221  A    between atoms: _536  and  _538
REMARK  222  A    between atoms: _538  and  _539
REMARK  223  A    between atoms: _538  and  _541
REMARK  224  A    between atoms: _541  and  _542
REMARK  225  A    between atoms: _545  and  _547
REMARK  226  A    between atoms: _547  and  _548
REMARK  227  A    between atoms: _550  and  _552
REMARK  228  A    between atoms: _552  and  _553
REMARK  229  A    between atoms: _552  and  _555
REMARK  230  A    between atoms: _555  and  _556
REMARK                            x       y       z     vdW  Elec       q    Type
REMARK                         _______ _______ _______ _____ _____    ______ ____
ROOT
ATOM      1  CA  GLN A   2      22.161  32.011  41.944  0.00  0.00    +0.149 C 
ENDROOT
BRANCH   1   4
ATOM      2  C   TYR A   1      22.542  32.842  44.187  0.00  0.00    +0.239 C 
ATOM      3  O   TYR A   1      21.425  33.377  44.236  0.00  0.00    -0.274 OA
ATOM      4  N   GLN A   2      22.966  32.148  43.142  0.00  0.00    -0.297 N 
ATOM      5  H   GLN A   2      23.899  31.690  43.182  0.00  0.00    +0.150 HD
BRANCH   2   6
ATOM      6  CA  TYR A   1      23.533  32.980  45.329  0.00  0.00    +0.149 C 
BRANCH   6   7
ATOM      7  N   TYR A   1      23.930  34.393  45.404  0.00  0.00    -0.238 NA
ATOM      8  H   TYR A   1      23.259  35.076  45.810  0.00  0.00    +0.142 HD
ENDBRANCH   6   7
BRANCH   6   9
ATOM      9  CB  TYR A   1      22.942  32.487  46.672  0.00  0.00    +0.053 C 
BRANCH   9  10
ATOM     10  CG  TYR A   1      22.627  30.998  46.727  0.00  0.00    -0.020 A 
ATOM     11  CD2 TYR A   1      23.577  30.083  47.192  0.00  0.00    -0.001 A 
ATOM     12  CE2 TYR A   1      23.300  28.713  47.237  0.00  0.00    +0.036 A 
ATOM     13  CZ  TYR A   1      22.061  28.251  46.816  0.00  0.00    +0.134 A 
ATOM     14  CE1 TYR A   1      21.102  29.130  46.335  0.00  0.00    +0.036 A 
ATOM     15  CD1 TYR A   1      21.387  30.502  46.301  0.00  0.00    -0.001 A 
BRANCH  13  16
ATOM     16  OH  TYR A   1      21.805  26.897  46.859  0.00  0.00    -0.506 OA
ATOM     17  HH  TYR A   1      22.593  26.425  47.227  0.00  0.00    +0.292 HD
ENDBRANCH  13  16
ENDBRANCH   9  10
ENDBRANCH   6   9
ENDBRANCH   2   6
ENDBRANCH   1   4
BRANCH   1  18
ATOM     18  C   GLN A   2      20.929  31.150  42.193  0.00  0.00    +0.241 C 
ATOM     19  O   GLN A   2      21.043  30.005  42.634  0.00  0.00    -0.273 OA
ATOM     20  N   ASN A   3      19.757  31.728  41.950  0.00  0.00    -0.298 N 
ATOM     21  H   ASN A   3      19.723  32.758  41.809  0.00  0.00    +0.150 HD
BRANCH  20  22
ATOM     22  CA  ASN A   3      18.519  30.966  41.875  0.00  0.00    +0.146 C 
BRANCH  22  23
ATOM     23  C   ASN A   3      18.357  30.541  40.421  0.00  0.00    +0.227 C 
ATOM     24  O   ASN A   3      19.081  31.031  39.538  0.00  0.00    -0.286 OA
ENDBRANCH  22  23
BRANCH  22  25
ATOM     25  CB  ASN A   3      17.312  31.801  42.325  0.00  0.00    +0.112 C 
BRANCH  25  26
ATOM     26  CG  ASN A   3      17.458  32.346  43.743  0.00  0.00    +0.222 C 
ATOM     27  OD1 ASN A   3      17.903  31.644  44.659  0.00  0.00    -0.275 OA
ATOM     28  ND2 ASN A   3      17.067  33.607  43.929  0.00  0.00    -0.329 N 
ATOM     29 HD21 ASN A   3      17.130  34.037  44.874  0.00  0.00    +0.145 HD
ATOM     30 HD22 ASN A   3      16.699  34.161  43.129  0.00  0.00    +0.145 HD
ENDBRANCH  25  26
ENDBRANCH  22  25
ENDBRANCH  20  22
ENDBRANCH   1  18
BRANCH   1  31
ATOM     31  CB  GLN A   2      23.010  31.422  40.814  0.00  0.00    +0.039 C 
BRANCH  31  32
ATOM     32  CG  GLN A   2      23.805  32.456  40.031  0.00  0.00    +0.087 C 
BRANCH  32  33
ATOM     33  CD  GLN A   2      22.979  33.101  38.929  0.00  0.00    +0.219 C 
ATOM     34  OE1 GLN A   2      21.743  33.097  38.973  0.00  0.00    -0.275 OA
ATOM     35  NE2 GLN A   2      23.659  33.653  37.928  0.00  0.00    -0.329 N 
ATOM     36 HE21 GLN A   2      24.699  33.633  37.932  0.00  0.00    +0.145 HD
ATOM     37 HE22 GLN A   2      23.151  34.105  37.141  0.00  0.00    +0.145 HD
ENDBRANCH  32  33
ENDBRANCH  31  32
ENDBRANCH   1  31
TORSDOF 14
REMARK  Name = ../refined-set-2016/3fv3/3fv3_pocket.pdb
REMARK  230 active torsions:
REMARK  status: ('A' for Active; 'I' for Inactive)
REMARK    1  A    between atoms: _1  and  _3
REMARK    2  A    between atoms: _3  and  _4
REMARK    3  A    between atoms: _7  and  _8
REMARK    4  A    between atoms: _13  and  _15
REMARK    5  A    between atoms: _15  and  _16
REMARK    6  A    between atoms: _15  and  _18
REMARK    7  A    between atoms: _18  and  _19
REMARK    8  A    between atoms: _21  and  _23
REMARK    9  A    between atoms: _23  and  _24
REMARK   10  A    between atoms: _23  and  _26
REMARK   11  A    between atoms: _26  and  _27
REMARK   12  A    between atoms: _32  and  _33
REMARK   13  A    between atoms: _35  and  _37
REMARK   14  A    between atoms: _37  and  _38
REMARK   15  A    between atoms: _37  and  _40
REMARK   16  A    between atoms: _40  and  _41
REMARK   17  A    between atoms: _44  and  _46
REMARK   18  A    between atoms: _46  and  _47
REMARK   19  A    between atoms: _46  and  _49
REMARK   20  A    between atoms: _49  and  _50
REMARK   21  A    between atoms: _53  and  _55
REMARK   22  A    between atoms: _55  and  _56
REMARK   23  A    between atoms: _55  and  _58
REMARK   24  A    between atoms: _58  and  _59
REMARK   25  A    between atoms: _62  and  _64
REMARK   26  A    between atoms: _64  and  _65
REMARK   27  A    between atoms: _64  and  _67
REMARK   28  A    between atoms: _67  and  _68
REMARK   29  A    between atoms: _71  and  _73
REMARK   30  A    between atoms: _73  and  _74
REMARK   31  A    between atoms: _76  and  _78
REMARK   32  A    between atoms: _78  and  _79
REMARK   33  A    between atoms: _78  and  _81
REMARK   34  A    between atoms: _81  and  _82
REMARK   35  A    between atoms: _84  and  _86
REMARK   36  A    between atoms: _86  and  _87
REMARK   37  A    between atoms: _86  and  _89
REMARK   38  A    between atoms: _89  and  _90
REMARK   39  A    between atoms: _92  and  _94
REMARK   40  A    between atoms: _94  and  _95
REMARK   41  A    between atoms: _94  and  _97
REMARK   42  A    between atoms: _97  and  _98
REMARK   43  A    between atoms: _101  and  _103
REMARK   44  A    between atoms: _103  and  _104
REMARK   45  A    between atoms: _103  and  _106
REMARK   46  A    between atoms: _106  and  _107
REMARK   47  A    between atoms: _117  and  _119
REMARK   48  A    between atoms: _119  and  _120
REMARK   49  A    between atoms: _119  and  _122
REMARK   50  A    between atoms: _122  and  _123
REMARK   51  A    between atoms: _126  and  _128
REMARK   52  A    between atoms: _128  and  _129
REMARK   53  A    between atoms: _128  and  _131
REMARK   54  A    between atoms: _131  and  _132
REMARK   55  A    between atoms: _132  and  _133
REMARK   56  A    between atoms: _133  and  _134
REMARK   57  A    between atoms: _143  and  _145
REMARK   58  A    between atoms: _145  and  _146
REMARK   59  A    between atoms: _145  and  _148
REMARK   60  A    between atoms: _148  and  _149
REMARK   61  A    between atoms: _154  and  _155
REMARK   62  A    between atoms: _157  and  _159
REMARK   63  A    between atoms: _159  and  _160
REMARK   64  A    between atoms: _162  and  _164
REMARK   65  A    between atoms: _164  and  _165
REMARK   66  A    between atoms: _164  and  _167
REMARK   67  A    between atoms: _167  and  _168
REMARK   68  A    between atoms: _171  and  _173
REMARK   69  A    between atoms: _173  and  _174
REMARK   70  A    between atoms: _176  and  _178
REMARK   71  A    between atoms: _178  and  _179
REMARK   72  A    between atoms: _178  and  _181
REMARK   73  A    between atoms: _181  and  _182
REMARK   74  A    between atoms: _184  and  _186
REMARK   75  A    between atoms: _186  and  _187
REMARK   76  A    between atoms: _186  and  _189
REMARK   77  A    between atoms: _189  and  _190
REMARK   78  A    between atoms: _193  and  _195
REMARK   79  A    between atoms: _195  and  _196
REMARK   80  A    between atoms: _195  and  _198
REMARK   81  A    between atoms: _198  and  _199
REMARK   82  A    between atoms: _201  and  _203
REMARK   83  A    between atoms: _203  and  _204
REMARK   84  A    between atoms: _203  and  _206
REMARK   85  A    between atoms: _209  and  _211
REMARK   86  A    between atoms: _211  and  _212
REMARK   87  A    between atoms: _211  and  _214
REMARK   88  A    between atoms: _214  and  _215
REMARK   89  A    between atoms: _218  and  _220
REMARK   90  A    between atoms: _220  and  _221
REMARK   91  A    between atoms: _220  and  _223
REMARK   92  A    between atoms: _223  and  _224
REMARK   93  A    between atoms: _224  and  _225
REMARK   94  A    between atoms: _230  and  _232
REMARK   95  A    between atoms: _232  and  _233
REMARK   96  A    between atoms: _235  and  _237
REMARK   97  A    between atoms: _237  and  _238
REMARK   98  A    between atoms: _237  and  _240
REMARK   99  A    between atoms: _240  and  _241
REMARK  100  A    between atoms: _244  and  _246
REMARK  101  A    between atoms: _246  and  _247
REMARK  102  A    between atoms: _246  and  _249
REMARK  103  A    between atoms: _249  and  _250
REMARK  104  A    between atoms: _253  and  _255
REMARK  105  A    between atoms: _255  and  _256
REMARK  106  A    between atoms: _255  and  _258
REMARK  107  A    between atoms: _258  and  _259
REMARK  108  A    between atoms: _262  and  _264
REMARK  109  A    between atoms: _264  and  _265
REMARK  110  A    between atoms: _264  and  _267
REMARK  111  A    between atoms: _267  and  _268
REMARK  112  A    between atoms: _273  and  _275
REMARK  113  A    between atoms: _275  and  _276
REMARK  114  A    between atoms: _275  and  _278
REMARK  115  A    between atoms: _278  and  _279
REMARK  116  A    between atoms: _279  and  _280
REMARK  117  A    between atoms: _283  and  _285
REMARK  118  A    between atoms: _285  and  _286
REMARK  119  A    between atoms: _289  and  _291
REMARK  120  A    between atoms: _291  and  _292
REMARK  121  A    between atoms: _291  and  _294
REMARK  122  A    between atoms: _294  and  _295
REMARK  123  A    between atoms: _295  and  _296
REMARK  124  A    between atoms: _301  and  _303
REMARK  125  A    between atoms: _303  and  _304
REMARK  126  A    between atoms: _307  and  _309
REMARK  127  A    between atoms: _309  and  _310
REMARK  128  A    between atoms: _309  and  _312
REMARK  129  A    between atoms: _312  and  _313
REMARK  130  A    between atoms: _316  and  _318
REMARK  131  A    between atoms: _318  and  _319
REMARK  132  A    between atoms: _318  and  _321
REMARK  133  A    between atoms: _321  and  _322
REMARK  134  A    between atoms: _325  and  _327
REMARK  135  A    between atoms: _327  and  _328
REMARK  136  A    between atoms: _327  and  _330
REMARK  137  A    between atoms: _330  and  _331
REMARK  138  A    between atoms: _334  and  _336
REMARK  139  A    between atoms: _336  and  _337
REMARK  140  A    between atoms: _336  and  _339
REMARK  141  A    between atoms: _339  and  _340
REMARK  142  A    between atoms: _343  and  _345
REMARK  143  A    between atoms: _345  and  _346
REMARK  144  A    between atoms: _345  and  _348
REMARK  145  A    between atoms: _348  and  _349
REMARK  146  A    between atoms: _351  and  _353
REMARK  147  A    between atoms: _353  and  _354
REMARK  148  A    between atoms: _356  and  _358
REMARK  149  A    between atoms: _358  and  _359
REMARK  150  A    between atoms: _358  and  _361
REMARK  151  A    between atoms: _361  and  _362
REMARK  152  A    between atoms: _365  and  _367
REMARK  153  A    between atoms: _367  and  _368
REMARK  154  A    between atoms: _367  and  _370
REMARK  155  A    between atoms: _370  and  _371
REMARK  156  A    between atoms: _374  and  _376
REMARK  157  A    between atoms: _376  and  _377
REMARK  158  A    between atoms: _376  and  _379
REMARK  159  A    between atoms: _379  and  _380
REMARK  160  A    between atoms: _383  and  _385
REMARK  161  A    between atoms: _385  and  _386
REMARK  162  A    between atoms: _385  and  _388
REMARK  163  A    between atoms: _388  and  _389
REMARK  164  A    between atoms: _392  and  _394
REMARK  165  A    between atoms: _394  and  _395
REMARK  166  A    between atoms: _394  and  _397
REMARK  167  A    between atoms: _397  and  _398
REMARK  168  A    between atoms: _403  and  _404
REMARK  169  A    between atoms: _406  and  _408
REMARK  170  A    between atoms: _408  and  _409
REMARK  171  A    between atoms: _408  and  _411
REMARK  172  A    between atoms: _411  and  _412
REMARK  173  A    between atoms: _412  and  _413
REMARK  174  A    between atoms: _418  and  _420
REMARK  175  A    between atoms: _420  and  _421
REMARK  176  A    between atoms: _420  and  _423
REMARK  177  A    between atoms: _423  and  _424
REMARK  178  A    between atoms: _427  and  _429
REMARK  179  A    between atoms: _429  and  _430
REMARK  180  A    between atoms: _429  and  _432
REMARK  181  A    between atoms: _432  and  _433
REMARK  182  A    between atoms: _438  and  _439
REMARK  183  A    between atoms: _441  and  _443
REMARK  184  A    between atoms: _443  and  _444
REMARK  185  A    between atoms: _443  and  _446
REMARK  186  A    between atoms: _446  and  _447
REMARK  187  A    between atoms: _447  and  _448
REMARK  188  A    between atoms: _453  and  _455
REMARK  189  A    between atoms: _455  and  _456
REMARK  190  A    between atoms: _455  and  _458
REMARK  191  A    between atoms: _458  and  _459
REMARK  192  A    between atoms: _464  and  _466
REMARK  193  A    between atoms: _466  and  _467
REMARK  194  A    between atoms: _466  and  _469
REMARK  195  A    between atoms: _469  and  _470
REMARK  196  A    between atoms: _473  and  _475
REMARK  197  A    between atoms: _475  and  _476
REMARK  198  A    between atoms: _475  and  _478
REMARK  199  A    between atoms: _478  and  _479
REMARK  200  A    between atoms: _489  and  _491
REMARK  201  A    between atoms: _491  and  _492
REMARK  202  A    between atoms: _491  and  _494
REMARK  203  A    between atoms: _494  and  _495
REMARK  204  A    between atoms: _495  and  _496
REMARK  205  A    between atoms: _501  and  _503
REMARK  206  A    between atoms: _503  and  _504
REMARK  207  A    between atoms: _503  and  _506
REMARK  208  A    between atoms: _506  and  _507
REMARK  209  A    between atoms: _509  and  _511
REMARK  210  A    between atoms: _511  and  _512
REMARK  211  A    between atoms: _511  and  _514
REMARK  212  A    between atoms: _514  and  _515
REMARK  213  A    between atoms: _518  and  _520
REMARK  214  A    between atoms: _520  and  _521
REMARK  215  A    between atoms: _520  and  _523
REMARK  216  A    between atoms: _523  and  _524
REMARK  217  A    between atoms: _527  and  _529
REMARK  218  A    between atoms: _529  and  _530
REMARK  219  A    between atoms: _529  and  _532
REMARK  220  A    between atoms: _532  and  _533
REMARK  221  A    between atoms: _536  and  _538
REMARK  222  A    between atoms: _538  and  _539
REMARK  223  A    between atoms: _538  and  _541
REMARK  224  A    between atoms: _541  and  _542
REMARK  225  A    between atoms: _545  and  _547
REMARK  226  A    between atoms: _547  and  _548
REMARK  227  A    between atoms: _550  and  _552
REMARK  228  A    between atoms: _552  and  _553
REMARK  229  A    between atoms: _552  and  _555
REMARK  230  A    between atoms: _555  and  _556
REMARK                            x       y       z     vdW  Elec       q    Type
REMARK                         _______ _______ _______ _____ _____    ______ ____
ROOT
ATOM      1  CA  TRP A   2      21.992  37.735  48.853  0.00  0.00    +0.141 C 
ENDROOT
BRANCH   1   3
ATOM      2  C   LEU A   1      20.900  36.341  47.204  0.00  0.00    +0.238 C 
ATOM      3  N   TRP A   2      20.808  37.265  48.152  0.00  0.00    -0.298 N 
ATOM      4  H   TRP A   2      19.877  37.658  48.397  0.00  0.00    +0.150 HD
ATOM      5  O   LEU A   1      21.964  36.049  46.656  0.00  0.00    -0.274 OA
BRANCH   2   6
ATOM      6  CA  LEU A   1      19.609  35.639  46.801  0.00  0.00    +0.145 C 
BRANCH   6   7
ATOM      7  N   LEU A   1      19.654  35.326  45.371  0.00  0.00    -0.238 NA
ATOM      8  H   LEU A   1      19.820  34.346  45.065  0.00  0.00    +0.142 HD
ENDBRANCH   6   7
BRANCH   6   9
ATOM      9  CB  LEU A   1      19.438  34.377  47.672  0.00  0.00    +0.026 C 
BRANCH   9  10
ATOM     10  CG  LEU A   1      18.149  33.550  47.639  0.00  0.00    +0.002 C 
ATOM     11  CD2 LEU A   1      18.282  32.405  48.622  0.00  0.00    +0.000 C 
ATOM     12  CD1 LEU A   1      16.906  34.380  47.956  0.00  0.00    +0.000 C 
ENDBRANCH   9  10
ENDBRANCH   6   9
ENDBRANCH   2   6
ENDBRANCH   1   3
BRANCH   1  13
ATOM     13  C   TRP A   2      22.472  36.598  49.787  0.00  0.00    +0.227 C 
ATOM     14  O   TRP A   2      21.678  35.761  50.211  0.00  0.00    -0.286 OA
ENDBRANCH   1  13
BRANCH   1  15
ATOM     15  CB  TRP A   2      21.657  38.999  49.643  0.00  0.00    +0.056 C 
BRANCH  15  16
ATOM     16  CG  TRP A   2      22.826  39.737  50.187  0.00  0.00    -0.002 A 
ATOM     17  CD2 TRP A   2      22.880  40.418  51.450  0.00  0.00    +0.013 A 
ATOM     18  CE3 TRP A   2      21.967  40.578  52.507  0.00  0.00    +0.001 A 
ATOM     19  CZ3 TRP A   2      22.365  41.308  53.655  0.00  0.00    +0.000 A 
ATOM     20  CH2 TRP A   2      23.661  41.872  53.730  0.00  0.00    +0.001 A 
ATOM     21  CZ2 TRP A   2      24.569  41.738  52.690  0.00  0.00    +0.017 A 
ATOM     22  CE2 TRP A   2      24.160  41.012  51.552  0.00  0.00    +0.056 A 
ATOM     23  NE1 TRP A   2      24.838  40.717  50.399  0.00  0.00    -0.352 N 
ATOM     24  HE1 TRP A   2      25.810  41.013  50.179  0.00  0.00    +0.166 HD
ATOM     25  CD1 TRP A   2      24.024  39.964  49.575  0.00  0.00    +0.068 A 
ENDBRANCH  15  16
ENDBRANCH   1  15
TORSDOF 8
REMARK  Name = ../refined-set-2016/3fv3/3fv3_pocket.pdb
REMARK  230 active torsions:
REMARK  status: ('A' for Active; 'I' for Inactive)
REMARK    1  A    between atoms: _1  and  _3
REMARK    2  A    between atoms: _3  and  _4
REMARK    3  A    between atoms: _7  and  _8
REMARK    4  A    between atoms: _13  and  _15
REMARK    5  A    between atoms: _15  and  _16
REMARK    6  A    between atoms: _15  and  _18
REMARK    7  A    between atoms: _18  and  _19
REMARK    8  A    between atoms: _21  and  _23
REMARK    9  A    between atoms: _23  and  _24
REMARK   10  A    between atoms: _23  and  _26
REMARK   11  A    between atoms: _26  and  _27
REMARK   12  A    between atoms: _32  and  _33
REMARK   13  A    between atoms: _35  and  _37
REMARK   14  A    between atoms: _37  and  _38
REMARK   15  A    between atoms: _37  and  _40
REMARK   16  A    between atoms: _40  and  _41
REMARK   17  A    between atoms: _44  and  _46
REMARK   18  A    between atoms: _46  and  _47
REMARK   19  A    between atoms: _46  and  _49
REMARK   20  A    between atoms: _49  and  _50
REMARK   21  A    between atoms: _53  and  _55
REMARK   22  A    between atoms: _55  and  _56
REMARK   23  A    between atoms: _55  and  _58
REMARK   24  A    between atoms: _58  and  _59
REMARK   25  A    between atoms: _62  and  _64
REMARK   26  A    between atoms: _64  and  _65
REMARK   27  A    between atoms: _64  and  _67
REMARK   28  A    between atoms: _67  and  _68
REMARK   29  A    between atoms: _71  and  _73
REMARK   30  A    between atoms: _73  and  _74
REMARK   31  A    between atoms: _76  and  _78
REMARK   32  A    between atoms: _78  and  _79
REMARK   33  A    between atoms: _78  and  _81
REMARK   34  A    between atoms: _81  and  _82
REMARK   35  A    between atoms: _84  and  _86
REMARK   36  A    between atoms: _86  and  _87
REMARK   37  A    between atoms: _86  and  _89
REMARK   38  A    between atoms: _89  and  _90
REMARK   39  A    between atoms: _92  and  _94
REMARK   40  A    between atoms: _94  and  _95
REMARK   41  A    between atoms: _94  and  _97
REMARK   42  A    between atoms: _97  and  _98
REMARK   43  A    between atoms: _101  and  _103
REMARK   44  A    between atoms: _103  and  _104
REMARK   45  A    between atoms: _103  and  _106
REMARK   46  A    between atoms: _106  and  _107
REMARK   47  A    between atoms: _117  and  _119
REMARK   48  A    between atoms: _119  and  _120
REMARK   49  A    between atoms: _119  and  _122
REMARK   50  A    between atoms: _122  and  _123
REMARK   51  A    between atoms: _126  and  _128
REMARK   52  A    between atoms: _128  and  _129
REMARK   53  A    between atoms: _128  and  _131
REMARK   54  A    between atoms: _131  and  _132
REMARK   55  A    between atoms: _132  and  _133
REMARK   56  A    between atoms: _133  and  _134
REMARK   57  A    between atoms: _143  and  _145
REMARK   58  A    between atoms: _145  and  _146
REMARK   59  A    between atoms: _145  and  _148
REMARK   60  A    between atoms: _148  and  _149
REMARK   61  A    between atoms: _154  and  _155
REMARK   62  A    between atoms: _157  and  _159
REMARK   63  A    between atoms: _159  and  _160
REMARK   64  A    between atoms: _162  and  _164
REMARK   65  A    between atoms: _164  and  _165
REMARK   66  A    between atoms: _164  and  _167
REMARK   67  A    between atoms: _167  and  _168
REMARK   68  A    between atoms: _171  and  _173
REMARK   69  A    between atoms: _173  and  _174
REMARK   70  A    between atoms: _176  and  _178
REMARK   71  A    between atoms: _178  and  _179
REMARK   72  A    between atoms: _178  and  _181
REMARK   73  A    between atoms: _181  and  _182
REMARK   74  A    between atoms: _184  and  _186
REMARK   75  A    between atoms: _186  and  _187
REMARK   76  A    between atoms: _186  and  _189
REMARK   77  A    between atoms: _189  and  _190
REMARK   78  A    between atoms: _193  and  _195
REMARK   79  A    between atoms: _195  and  _196
REMARK   80  A    between atoms: _195  and  _198
REMARK   81  A    between atoms: _198  and  _199
REMARK   82  A    between atoms: _201  and  _203
REMARK   83  A    between atoms: _203  and  _204
REMARK   84  A    between atoms: _203  and  _206
REMARK   85  A    between atoms: _209  and  _211
REMARK   86  A    between atoms: _211  and  _212
REMARK   87  A    between atoms: _211  and  _214
REMARK   88  A    between atoms: _214  and  _215
REMARK   89  A    between atoms: _218  and  _220
REMARK   90  A    between atoms: _220  and  _221
REMARK   91  A    between atoms: _220  and  _223
REMARK   92  A    between atoms: _223  and  _224
REMARK   93  A    between atoms: _224  and  _225
REMARK   94  A    between atoms: _230  and  _232
REMARK   95  A    between atoms: _232  and  _233
REMARK   96  A    between atoms: _235  and  _237
REMARK   97  A    between atoms: _237  and  _238
REMARK   98  A    between atoms: _237  and  _240
REMARK   99  A    between atoms: _240  and  _241
REMARK  100  A    between atoms: _244  and  _246
REMARK  101  A    between atoms: _246  and  _247
REMARK  102  A    between atoms: _246  and  _249
REMARK  103  A    between atoms: _249  and  _250
REMARK  104  A    between atoms: _253  and  _255
REMARK  105  A    between atoms: _255  and  _256
REMARK  106  A    between atoms: _255  and  _258
REMARK  107  A    between atoms: _258  and  _259
REMARK  108  A    between atoms: _262  and  _264
REMARK  109  A    between atoms: _264  and  _265
REMARK  110  A    between atoms: _264  and  _267
REMARK  111  A    between atoms: _267  and  _268
REMARK  112  A    between atoms: _273  and  _275
REMARK  113  A    between atoms: _275  and  _276
REMARK  114  A    between atoms: _275  and  _278
REMARK  115  A    between atoms: _278  and  _279
REMARK  116  A    between atoms: _279  and  _280
REMARK  117  A    between atoms: _283  and  _285
REMARK  118  A    between atoms: _285  and  _286
REMARK  119  A    between atoms: _289  and  _291
REMARK  120  A    between atoms: _291  and  _292
REMARK  121  A    between atoms: _291  and  _294
REMARK  122  A    between atoms: _294  and  _295
REMARK  123  A    between atoms: _295  and  _296
REMARK  124  A    between atoms: _301  and  _303
REMARK  125  A    between atoms: _303  and  _304
REMARK  126  A    between atoms: _307  and  _309
REMARK  127  A    between atoms: _309  and  _310
REMARK  128  A    between atoms: _309  and  _312
REMARK  129  A    between atoms: _312  and  _313
REMARK  130  A    between atoms: _316  and  _318
REMARK  131  A    between atoms: _318  and  _319
REMARK  132  A    between atoms: _318  and  _321
REMARK  133  A    between atoms: _321  and  _322
REMARK  134  A    between atoms: _325  and  _327
REMARK  135  A    between atoms: _327  and  _328
REMARK  136  A    between atoms: _327  and  _330
REMARK  137  A    between atoms: _330  and  _331
REMARK  138  A    between atoms: _334  and  _336
REMARK  139  A    between atoms: _336  and  _337
REMARK  140  A    between atoms: _336  and  _339
REMARK  141  A    between atoms: _339  and  _340
REMARK  142  A    between atoms: _343  and  _345
REMARK  143  A    between atoms: _345  and  _346
REMARK  144  A    between atoms: _345  and  _348
REMARK  145  A    between atoms: _348  and  _349
REMARK  146  A    between atoms: _351  and  _353
REMARK  147  A    between atoms: _353  and  _354
REMARK  148  A    between atoms: _356  and  _358
REMARK  149  A    between atoms: _358  and  _359
REMARK  150  A    between atoms: _358  and  _361
REMARK  151  A    between atoms: _361  and  _362
REMARK  152  A    between atoms: _365  and  _367
REMARK  153  A    between atoms: _367  and  _368
REMARK  154  A    between atoms: _367  and  _370
REMARK  155  A    between atoms: _370  and  _371
REMARK  156  A    between atoms: _374  and  _376
REMARK  157  A    between atoms: _376  and  _377
REMARK  158  A    between atoms: _376  and  _379
REMARK  159  A    between atoms: _379  and  _380
REMARK  160  A    between atoms: _383  and  _385
REMARK  161  A    between atoms: _385  and  _386
REMARK  162  A    between atoms: _385  and  _388
REMARK  163  A    between atoms: _388  and  _389
REMARK  164  A    between atoms: _392  and  _394
REMARK  165  A    between atoms: _394  and  _395
REMARK  166  A    between atoms: _394  and  _397
REMARK  167  A    between atoms: _397  and  _398
REMARK  168  A    between atoms: _403  and  _404
REMARK  169  A    between atoms: _406  and  _408
REMARK  170  A    between atoms: _408  and  _409
REMARK  171  A    between atoms: _408  and  _411
REMARK  172  A    between atoms: _411  and  _412
REMARK  173  A    between atoms: _412  and  _413
REMARK  174  A    between atoms: _418  and  _420
REMARK  175  A    between atoms: _420  and  _421
REMARK  176  A    between atoms: _420  and  _423
REMARK  177  A    between atoms: _423  and  _424
REMARK  178  A    between atoms: _427  and  _429
REMARK  179  A    between atoms: _429  and  _430
REMARK  180  A    between atoms: _429  and  _432
REMARK  181  A    between atoms: _432  and  _433
REMARK  182  A    between atoms: _438  and  _439
REMARK  183  A    between atoms: _441  and  _443
REMARK  184  A    between atoms: _443  and  _444
REMARK  185  A    between atoms: _443  and  _446
REMARK  186  A    between atoms: _446  and  _447
REMARK  187  A    between atoms: _447  and  _448
REMARK  188  A    between atoms: _453  and  _455
REMARK  189  A    between atoms: _455  and  _456
REMARK  190  A    between atoms: _455  and  _458
REMARK  191  A    between atoms: _458  and  _459
REMARK  192  A    between atoms: _464  and  _466
REMARK  193  A    between atoms: _466  and  _467
REMARK  194  A    between atoms: _466  and  _469
REMARK  195  A    between atoms: _469  and  _470
REMARK  196  A    between atoms: _473  and  _475
REMARK  197  A    between atoms: _475  and  _476
REMARK  198  A    between atoms: _475  and  _478
REMARK  199  A    between atoms: _478  and  _479
REMARK  200  A    between atoms: _489  and  _491
REMARK  201  A    between atoms: _491  and  _492
REMARK  202  A    between atoms: _491  and  _494
REMARK  203  A    between atoms: _494  and  _495
REMARK  204  A    between atoms: _495  and  _496
REMARK  205  A    between atoms: _501  and  _503
REMARK  206  A    between atoms: _503  and  _504
REMARK  207  A    between atoms: _503  and  _506
REMARK  208  A    between atoms: _506  and  _507
REMARK  209  A    between atoms: _509  and  _511
REMARK  210  A    between atoms: _511  and  _512
REMARK  211  A    between atoms: _511  and  _514
REMARK  212  A    between atoms: _514  and  _515
REMARK  213  A    between atoms: _518  and  _520
REMARK  214  A    between atoms: _520  and  _521
REMARK  215  A    between atoms: _520  and  _523
REMARK  216  A    between atoms: _523  and  _524
REMARK  217  A    between atoms: _527  and  _529
REMARK  218  A    between atoms: _529  and  _530
REMARK  219  A    between atoms: _529  and  _532
REMARK  220  A    between atoms: _532  and  _533
REMARK  221  A    between atoms: _536  and  _538
REMARK  222  A    between atoms: _538  and  _539
REMARK  223  A    between atoms: _538  and  _541
REMARK  224  A    between atoms: _541  and  _542
REMARK  225  A    between atoms: _545  and  _547
REMARK  226  A    between atoms: _547  and  _548
REMARK  227  A    between atoms: _550  and  _552
REMARK  228  A    between atoms: _552  and  _553
REMARK  229  A    between atoms: _552  and  _555
REMARK  230  A    between atoms: _555  and  _556
REMARK                            x       y       z     vdW  Elec       q    Type
REMARK                         _______ _______ _______ _____ _____    ______ ____
ROOT
ATOM      1  CB  GLN A   1      19.165  35.084  55.047  0.00  0.00    +0.035 C 
ENDROOT
BRANCH   1   2
ATOM      2  CA  GLN A   1      19.675  36.473  55.462  0.00  0.00    +0.134 C 
BRANCH   2   3
ATOM      3  N   GLN A   1      21.136  36.521  55.285  0.00  0.00    -0.239 NA
ATOM      4  H   GLN A   1      21.743  36.054  55.989  0.00  0.00    +0.142 HD
ENDBRANCH   2   3
BRANCH   2   5
ATOM      5  C   GLN A   1      19.281  36.772  56.916  0.00  0.00    +0.224 C 
ATOM      6  O   GLN A   1      20.082  36.510  57.827  0.00  0.00    -0.287 OA
ENDBRANCH   2   5
ENDBRANCH   1   2
BRANCH   1   7
ATOM      7  CG  GLN A   1      19.386  34.729  53.553  0.00  0.00    +0.087 C 
BRANCH   7   8
ATOM      8  CD  GLN A   1      18.640  35.681  52.631  0.00  0.00    +0.219 C 
ATOM      9  OE1 GLN A   1      17.680  36.323  53.055  0.00  0.00    -0.275 OA
ATOM     10  NE2 GLN A   1      19.079  35.779  51.377  0.00  0.00    -0.329 N 
ATOM     11 HE21 GLN A   1      19.895  35.215  51.066  0.00  0.00    +0.145 HD
ATOM     12 HE22 GLN A   1      18.605  36.420  50.709  0.00  0.00    +0.145 HD
ENDBRANCH   7   8
ENDBRANCH   1   7
TORSDOF 5
REMARK  Name = ../refined-set-2016/3fv3/3fv3_pocket.pdb
REMARK  230 active torsions:
REMARK  status: ('A' for Active; 'I' for Inactive)
REMARK    1  A    between atoms: _1  and  _3
REMARK    2  A    between atoms: _3  and  _4
REMARK    3  A    between atoms: _7  and  _8
REMARK    4  A    between atoms: _13  and  _15
REMARK    5  A    between atoms: _15  and  _16
REMARK    6  A    between atoms: _15  and  _18
REMARK    7  A    between atoms: _18  and  _19
REMARK    8  A    between atoms: _21  and  _23
REMARK    9  A    between atoms: _23  and  _24
REMARK   10  A    between atoms: _23  and  _26
REMARK   11  A    between atoms: _26  and  _27
REMARK   12  A    between atoms: _32  and  _33
REMARK   13  A    between atoms: _35  and  _37
REMARK   14  A    between atoms: _37  and  _38
REMARK   15  A    between atoms: _37  and  _40
REMARK   16  A    between atoms: _40  and  _41
REMARK   17  A    between atoms: _44  and  _46
REMARK   18  A    between atoms: _46  and  _47
REMARK   19  A    between atoms: _46  and  _49
REMARK   20  A    between atoms: _49  and  _50
REMARK   21  A    between atoms: _53  and  _55
REMARK   22  A    between atoms: _55  and  _56
REMARK   23  A    between atoms: _55  and  _58
REMARK   24  A    between atoms: _58  and  _59
REMARK   25  A    between atoms: _62  and  _64
REMARK   26  A    between atoms: _64  and  _65
REMARK   27  A    between atoms: _64  and  _67
REMARK   28  A    between atoms: _67  and  _68
REMARK   29  A    between atoms: _71  and  _73
REMARK   30  A    between atoms: _73  and  _74
REMARK   31  A    between atoms: _76  and  _78
REMARK   32  A    between atoms: _78  and  _79
REMARK   33  A    between atoms: _78  and  _81
REMARK   34  A    between atoms: _81  and  _82
REMARK   35  A    between atoms: _84  and  _86
REMARK   36  A    between atoms: _86  and  _87
REMARK   37  A    between atoms: _86  and  _89
REMARK   38  A    between atoms: _89  and  _90
REMARK   39  A    between atoms: _92  and  _94
REMARK   40  A    between atoms: _94  and  _95
REMARK   41  A    between atoms: _94  and  _97
REMARK   42  A    between atoms: _97  and  _98
REMARK   43  A    between atoms: _101  and  _103
REMARK   44  A    between atoms: _103  and  _104
REMARK   45  A    between atoms: _103  and  _106
REMARK   46  A    between atoms: _106  and  _107
REMARK   47  A    between atoms: _117  and  _119
REMARK   48  A    between atoms: _119  and  _120
REMARK   49  A    between atoms: _119  and  _122
REMARK   50  A    between atoms: _122  and  _123
REMARK   51  A    between atoms: _126  and  _128
REMARK   52  A    between atoms: _128  and  _129
REMARK   53  A    between atoms: _128  and  _131
REMARK   54  A    between atoms: _131  and  _132
REMARK   55  A    between atoms: _132  and  _133
REMARK   56  A    between atoms: _133  and  _134
REMARK   57  A    between atoms: _143  and  _145
REMARK   58  A    between atoms: _145  and  _146
REMARK   59  A    between atoms: _145  and  _148
REMARK   60  A    between atoms: _148  and  _149
REMARK   61  A    between atoms: _154  and  _155
REMARK   62  A    between atoms: _157  and  _159
REMARK   63  A    between atoms: _159  and  _160
REMARK   64  A    between atoms: _162  and  _164
REMARK   65  A    between atoms: _164  and  _165
REMARK   66  A    between atoms: _164  and  _167
REMARK   67  A    between atoms: _167  and  _168
REMARK   68  A    between atoms: _171  and  _173
REMARK   69  A    between atoms: _173  and  _174
REMARK   70  A    between atoms: _176  and  _178
REMARK   71  A    between atoms: _178  and  _179
REMARK   72  A    between atoms: _178  and  _181
REMARK   73  A    between atoms: _181  and  _182
REMARK   74  A    between atoms: _184  and  _186
REMARK   75  A    between atoms: _186  and  _187
REMARK   76  A    between atoms: _186  and  _189
REMARK   77  A    between atoms: _189  and  _190
REMARK   78  A    between atoms: _193  and  _195
REMARK   79  A    between atoms: _195  and  _196
REMARK   80  A    between atoms: _195  and  _198
REMARK   81  A    between atoms: _198  and  _199
REMARK   82  A    between atoms: _201  and  _203
REMARK   83  A    between atoms: _203  and  _204
REMARK   84  A    between atoms: _203  and  _206
REMARK   85  A    between atoms: _209  and  _211
REMARK   86  A    between atoms: _211  and  _212
REMARK   87  A    between atoms: _211  and  _214
REMARK   88  A    between atoms: _214  and  _215
REMARK   89  A    between atoms: _218  and  _220
REMARK   90  A    between atoms: _220  and  _221
REMARK   91  A    between atoms: _220  and  _223
REMARK   92  A    between atoms: _223  and  _224
REMARK   93  A    between atoms: _224  and  _225
REMARK   94  A    between atoms: _230  and  _232
REMARK   95  A    between atoms: _232  and  _233
REMARK   96  A    between atoms: _235  and  _237
REMARK   97  A    between atoms: _237  and  _238
REMARK   98  A    between atoms: _237  and  _240
REMARK   99  A    between atoms: _240  and  _241
REMARK  100  A    between atoms: _244  and  _246
REMARK  101  A    between atoms: _246  and  _247
REMARK  102  A    between atoms: _246  and  _249
REMARK  103  A    between atoms: _249  and  _250
REMARK  104  A    between atoms: _253  and  _255
REMARK  105  A    between atoms: _255  and  _256
REMARK  106  A    between atoms: _255  and  _258
REMARK  107  A    between atoms: _258  and  _259
REMARK  108  A    between atoms: _262  and  _264
REMARK  109  A    between atoms: _264  and  _265
REMARK  110  A    between atoms: _264  and  _267
REMARK  111  A    between atoms: _267  and  _268
REMARK  112  A    between atoms: _273  and  _275
REMARK  113  A    between atoms: _275  and  _276
REMARK  114  A    between atoms: _275  and  _278
REMARK  115  A    between atoms: _278  and  _279
REMARK  116  A    between atoms: _279  and  _280
REMARK  117  A    between atoms: _283  and  _285
REMARK  118  A    between atoms: _285  and  _286
REMARK  119  A    between atoms: _289  and  _291
REMARK  120  A    between atoms: _291  and  _292
REMARK  121  A    between atoms: _291  and  _294
REMARK  122  A    between atoms: _294  and  _295
REMARK  123  A    between atoms: _295  and  _296
REMARK  124  A    between atoms: _301  and  _303
REMARK  125  A    between atoms: _303  and  _304
REMARK  126  A    between atoms: _307  and  _309
REMARK  127  A    between atoms: _309  and  _310
REMARK  128  A    between atoms: _309  and  _312
REMARK  129  A    between atoms: _312  and  _313
REMARK  130  A    between atoms: _316  and  _318
REMARK  131  A    between atoms: _318  and  _319
REMARK  132  A    between atoms: _318  and  _321
REMARK  133  A    between atoms: _321  and  _322
REMARK  134  A    between atoms: _325  and  _327
REMARK  135  A    between atoms: _327  and  _328
REMARK  136  A    between atoms: _327  and  _330
REMARK  137  A    between atoms: _330  and  _331
REMARK  138  A    between atoms: _334  and  _336
REMARK  139  A    between atoms: _336  and  _337
REMARK  140  A    between atoms: _336  and  _339
REMARK  141  A    between atoms: _339  and  _340
REMARK  142  A    between atoms: _343  and  _345
REMARK  143  A    between atoms: _345  and  _346
REMARK  144  A    between atoms: _345  and  _348
REMARK  145  A    between atoms: _348  and  _349
REMARK  146  A    between atoms: _351  and  _353
REMARK  147  A    between atoms: _353  and  _354
REMARK  148  A    between atoms: _356  and  _358
REMARK  149  A    between atoms: _358  and  _359
REMARK  150  A    between atoms: _358  and  _361
REMARK  151  A    between atoms: _361  and  _362
REMARK  152  A    between atoms: _365  and  _367
REMARK  153  A    between atoms: _367  and  _368
REMARK  154  A    between atoms: _367  and  _370
REMARK  155  A    between atoms: _370  and  _371
REMARK  156  A    between atoms: _374  and  _376
REMARK  157  A    between atoms: _376  and  _377
REMARK  158  A    between atoms: _376  and  _379
REMARK  159  A    between atoms: _379  and  _380
REMARK  160  A    between atoms: _383  and  _385
REMARK  161  A    between atoms: _385  and  _386
REMARK  162  A    between atoms: _385  and  _388
REMARK  163  A    between atoms: _388  and  _389
REMARK  164  A    between atoms: _392  and  _394
REMARK  165  A    between atoms: _394  and  _395
REMARK  166  A    between atoms: _394  and  _397
REMARK  167  A    between atoms: _397  and  _398
REMARK  168  A    between atoms: _403  and  _404
REMARK  169  A    between atoms: _406  and  _408
REMARK  170  A    between atoms: _408  and  _409
REMARK  171  A    between atoms: _408  and  _411
REMARK  172  A    between atoms: _411  and  _412
REMARK  173  A    between atoms: _412  and  _413
REMARK  174  A    between atoms: _418  and  _420
REMARK  175  A    between atoms: _420  and  _421
REMARK  176  A    between atoms: _420  and  _423
REMARK  177  A    between atoms: _423  and  _424
REMARK  178  A    between atoms: _427  and  _429
REMARK  179  A    between atoms: _429  and  _430
REMARK  180  A    between atoms: _429  and  _432
REMARK  181  A    between atoms: _432  and  _433
REMARK  182  A    between atoms: _438  and  _439
REMARK  183  A    between atoms: _441  and  _443
REMARK  184  A    between atoms: _443  and  _444
REMARK  185  A    between atoms: _443  and  _446
REMARK  186  A    between atoms: _446  and  _447
REMARK  187  A    between atoms: _447  and  _448
REMARK  188  A    between atoms: _453  and  _455
REMARK  189  A    between atoms: _455  and  _456
REMARK  190  A    between atoms: _455  and  _458
REMARK  191  A    between atoms: _458  and  _459
REMARK  192  A    between atoms: _464  and  _466
REMARK  193  A    between atoms: _466  and  _467
REMARK  194  A    between atoms: _466  and  _469
REMARK  195  A    between atoms: _469  and  _470
REMARK  196  A    between atoms: _473  and  _475
REMARK  197  A    between atoms: _475  and  _476
REMARK  198  A    between atoms: _475  and  _478
REMARK  199  A    between atoms: _478  and  _479
REMARK  200  A    between atoms: _489  and  _491
REMARK  201  A    between atoms: _491  and  _492
REMARK  202  A    between atoms: _491  and  _494
REMARK  203  A    between atoms: _494  and  _495
REMARK  204  A    between atoms: _495  and  _496
REMARK  205  A    between atoms: _501  and  _503
REMARK  206  A    between atoms: _503  and  _504
REMARK  207  A    between atoms: _503  and  _506
REMARK  208  A    between atoms: _506  and  _507
REMARK  209  A    between atoms: _509  and  _511
REMARK  210  A    between atoms: _511  and  _512
REMARK  211  A    between atoms: _511  and  _514
REMARK  212  A    between atoms: _514  and  _515
REMARK  213  A    between atoms: _518  and  _520
REMARK  214  A    between atoms: _520  and  _521
REMARK  215  A    between atoms: _520  and  _523
REMARK  216  A    between atoms: _523  and  _524
REMARK  217  A    between atoms: _527  and  _529
REMARK  218  A    between atoms: _529  and  _530
REMARK  219  A    between atoms: _529  and  _532
REMARK  220  A    between atoms: _532  and  _533
REMARK  221  A    between atoms: _536  and  _538
REMARK  222  A    between atoms: _538  and  _539
REMARK  223  A    between atoms: _538  and  _541
REMARK  224  A    between atoms: _541  and  _542
REMARK  225  A    between atoms: _545  and  _547
REMARK  226  A    between atoms: _547  and  _548
REMARK  227  A    between atoms: _550  and  _552
REMARK  228  A    between atoms: _552  and  _553
REMARK  229  A    between atoms: _552  and  _555
REMARK  230  A    between atoms: _555  and  _556
REMARK                            x       y       z     vdW  Elec       q    Type
REMARK                         _______ _______ _______ _____ _____    ______ ____
ROOT
ATOM      1  CA  ASP A   3      19.686  32.705  64.911  0.00  0.00    +0.160 C 
ENDROOT
BRANCH   1   4
ATOM      2  C   ASP A   2      17.849  34.217  65.508  0.00  0.00    +0.241 C 
ATOM      3  O   ASP A   2      18.341  34.466  66.599  0.00  0.00    -0.273 OA
ATOM      4  N   ASP A   3      18.430  33.399  64.620  0.00  0.00    -0.297 N 
ATOM      5  H   ASP A   3      17.975  33.253  63.696  0.00  0.00    +0.150 HD
BRANCH   2   6
ATOM      6  CA  ASP A   2      16.526  34.856  65.099  0.00  0.00    +0.160 C 
BRANCH   6   8
ATOM      7  C   SER A   1      17.053  35.484  62.823  0.00  0.00    +0.241 C 
ATOM      8  N   ASP A   2      16.305  34.767  63.661  0.00  0.00    -0.297 N 
ATOM      9  H   ASP A   2      15.562  34.142  63.288  0.00  0.00    +0.150 HD
ATOM     10  O   SER A   1      17.804  36.380  63.194  0.00  0.00    -0.274 OA
BRANCH   7  11
ATOM     11  CA  SER A   1      16.995  35.127  61.340  0.00  0.00    +0.174 C 
BRANCH  11  12
ATOM     12  N   SER A   1      17.380  36.292  60.554  0.00  0.00    -0.236 NA
ATOM     13  H   SER A   1      17.851  37.092  61.024  0.00  0.00    +0.142 HD
ENDBRANCH  11  12
BRANCH  11  14
ATOM     14  CB  SER A   1      18.004  34.000  61.080  0.00  0.00    +0.163 C 
BRANCH  14  15
ATOM     15  OG  SER A   1      17.791  32.894  61.934  0.00  0.00    -0.380 OA
ATOM     16  H   SER A   1      16.880  32.535  61.787  0.00  0.00    +0.211 HD
ENDBRANCH  14  15
ENDBRANCH  11  14
ENDBRANCH   7  11
ENDBRANCH   6   8
BRANCH   6  17
ATOM     17  CB  ASP A   2      15.377  34.211  65.863  0.00  0.00    +0.143 C 
BRANCH  17  18
ATOM     18  CG  ASP A   2      14.085  34.991  65.727  0.00  0.00    +0.367 C 
ATOM     19  OD2 ASP A   2      13.023  34.409  65.990  0.00  0.00    -0.246 OA
ATOM     20  OD1 ASP A   2      14.136  36.183  65.363  0.00  0.00    -0.246 OA
ENDBRANCH  17  18
ENDBRANCH   6  17
ENDBRANCH   2   6
ENDBRANCH   1   4
BRANCH   1  21
ATOM     21  C   ASP A   3      20.850  33.315  64.133  0.00  0.00    +0.241 C 
ATOM     22  N   THR A   4      22.044  33.343  64.729  0.00  0.00    -0.295 N 
ATOM     23  H   THR A   4      22.144  32.977  65.697  0.00  0.00    +0.150 HD
ATOM     24  O   ASP A   3      20.660  33.772  62.999  0.00  0.00    -0.273 OA
BRANCH  22  25
ATOM     25  CA  THR A   4      23.210  33.882  64.037  0.00  0.00    +0.176 C 
BRANCH  25  26
ATOM     26  C   THR A   4      24.097  32.705  63.651  0.00  0.00    +0.243 C 
ATOM     27  O   THR A   4      24.565  31.940  64.516  0.00  0.00    -0.273 OA
ATOM     28  N   ILE A   5      24.269  32.549  62.344  0.00  0.00    -0.298 N 
ATOM     29  H   ILE A   5      23.938  33.290  61.694  0.00  0.00    +0.150 HD
BRANCH  28  30
ATOM     30  CA  ILE A   5      24.911  31.361  61.804  0.00  0.00    +0.137 C 
BRANCH  30  31
ATOM     31  C   ILE A   5      25.844  31.768  60.676  0.00  0.00    +0.227 C 
ATOM     32  O   ILE A   5      25.423  32.441  59.718  0.00  0.00    -0.286 OA
ENDBRANCH  30  31
BRANCH  30  33
ATOM     33  CB  ILE A   5      23.919  30.336  61.227  0.00  0.00    +0.026 C 
ATOM     34  CG2 ILE A   5      24.708  29.046  60.726  0.00  0.00    +0.002 C 
BRANCH  33  35
ATOM     35  CG1 ILE A   5      22.832  29.971  62.251  0.00  0.00    +0.002 C 
ATOM     36  CD1 ILE A   5      21.688  29.134  61.683  0.00  0.00    +0.000 C 
ENDBRANCH  33  35
ENDBRANCH  30  33
ENDBRANCH  28  30
ENDBRANCH  25  26
BRANCH  25  37
ATOM     37  CB  THR A   4      23.982  34.913  64.887  0.00  0.00    +0.137 C 
ATOM     38  CG2 THR A   4      25.196  35.431  64.141  0.00  0.00    +0.034 C 
BRANCH  37  39
ATOM     39  OG1 THR A   4      23.112  36.014  65.207  0.00  0.00    -0.382 OA
ATOM     40  HG1 THR A   4      22.333  35.680  65.718  0.00  0.00    +0.210 HD
ENDBRANCH  37  39
ENDBRANCH  25  37
ENDBRANCH  22  25
ENDBRANCH   1  21
BRANCH   1  41
ATOM     41  CB  ASP A   3      19.556  31.219  64.577  0.00  0.00    +0.143 C 
BRANCH  41  42
ATOM     42  CG  ASP A   3      18.519  30.525  65.435  0.00  0.00    +0.367 C 
ATOM     43  OD2 ASP A   3      18.800  30.245  66.611  0.00  0.00    -0.246 OA
ATOM     44  OD1 ASP A   3      17.411  30.266  64.936  0.00  0.00    -0.246 OA
ENDBRANCH  41  42
ENDBRANCH   1  41
TORSDOF 20
REMARK  Name = ../refined-set-2016/3fv3/3fv3_pocket.pdb
REMARK  230 active torsions:
REMARK  status: ('A' for Active; 'I' for Inactive)
REMARK    1  A    between atoms: _1  and  _3
REMARK    2  A    between atoms: _3  and  _4
REMARK    3  A    between atoms: _7  and  _8
REMARK    4  A    between atoms: _13  and  _15
REMARK    5  A    between atoms: _15  and  _16
REMARK    6  A    between atoms: _15  and  _18
REMARK    7  A    between atoms: _18  and  _19
REMARK    8  A    between atoms: _21  and  _23
REMARK    9  A    between atoms: _23  and  _24
REMARK   10  A    between atoms: _23  and  _26
REMARK   11  A    between atoms: _26  and  _27
REMARK   12  A    between atoms: _32  and  _33
REMARK   13  A    between atoms: _35  and  _37
REMARK   14  A    between atoms: _37  and  _38
REMARK   15  A    between atoms: _37  and  _40
REMARK   16  A    between atoms: _40  and  _41
REMARK   17  A    between atoms: _44  and  _46
REMARK   18  A    between atoms: _46  and  _47
REMARK   19  A    between atoms: _46  and  _49
REMARK   20  A    between atoms: _49  and  _50
REMARK   21  A    between atoms: _53  and  _55
REMARK   22  A    between atoms: _55  and  _56
REMARK   23  A    between atoms: _55  and  _58
REMARK   24  A    between atoms: _58  and  _59
REMARK   25  A    between atoms: _62  and  _64
REMARK   26  A    between atoms: _64  and  _65
REMARK   27  A    between atoms: _64  and  _67
REMARK   28  A    between atoms: _67  and  _68
REMARK   29  A    between atoms: _71  and  _73
REMARK   30  A    between atoms: _73  and  _74
REMARK   31  A    between atoms: _76  and  _78
REMARK   32  A    between atoms: _78  and  _79
REMARK   33  A    between atoms: _78  and  _81
REMARK   34  A    between atoms: _81  and  _82
REMARK   35  A    between atoms: _84  and  _86
REMARK   36  A    between atoms: _86  and  _87
REMARK   37  A    between atoms: _86  and  _89
REMARK   38  A    between atoms: _89  and  _90
REMARK   39  A    between atoms: _92  and  _94
REMARK   40  A    between atoms: _94  and  _95
REMARK   41  A    between atoms: _94  and  _97
REMARK   42  A    between atoms: _97  and  _98
REMARK   43  A    between atoms: _101  and  _103
REMARK   44  A    between atoms: _103  and  _104
REMARK   45  A    between atoms: _103  and  _106
REMARK   46  A    between atoms: _106  and  _107
REMARK   47  A    between atoms: _117  and  _119
REMARK   48  A    between atoms: _119  and  _120
REMARK   49  A    between atoms: _119  and  _122
REMARK   50  A    between atoms: _122  and  _123
REMARK   51  A    between atoms: _126  and  _128
REMARK   52  A    between atoms: _128  and  _129
REMARK   53  A    between atoms: _128  and  _131
REMARK   54  A    between atoms: _131  and  _132
REMARK   55  A    between atoms: _132  and  _133
REMARK   56  A    between atoms: _133  and  _134
REMARK   57  A    between atoms: _143  and  _145
REMARK   58  A    between atoms: _145  and  _146
REMARK   59  A    between atoms: _145  and  _148
REMARK   60  A    between atoms: _148  and  _149
REMARK   61  A    between atoms: _154  and  _155
REMARK   62  A    between atoms: _157  and  _159
REMARK   63  A    between atoms: _159  and  _160
REMARK   64  A    between atoms: _162  and  _164
REMARK   65  A    between atoms: _164  and  _165
REMARK   66  A    between atoms: _164  and  _167
REMARK   67  A    between atoms: _167  and  _168
REMARK   68  A    between atoms: _171  and  _173
REMARK   69  A    between atoms: _173  and  _174
REMARK   70  A    between atoms: _176  and  _178
REMARK   71  A    between atoms: _178  and  _179
REMARK   72  A    between atoms: _178  and  _181
REMARK   73  A    between atoms: _181  and  _182
REMARK   74  A    between atoms: _184  and  _186
REMARK   75  A    between atoms: _186  and  _187
REMARK   76  A    between atoms: _186  and  _189
REMARK   77  A    between atoms: _189  and  _190
REMARK   78  A    between atoms: _193  and  _195
REMARK   79  A    between atoms: _195  and  _196
REMARK   80  A    between atoms: _195  and  _198
REMARK   81  A    between atoms: _198  and  _199
REMARK   82  A    between atoms: _201  and  _203
REMARK   83  A    between atoms: _203  and  _204
REMARK   84  A    between atoms: _203  and  _206
REMARK   85  A    between atoms: _209  and  _211
REMARK   86  A    between atoms: _211  and  _212
REMARK   87  A    between atoms: _211  and  _214
REMARK   88  A    between atoms: _214  and  _215
REMARK   89  A    between atoms: _218  and  _220
REMARK   90  A    between atoms: _220  and  _221
REMARK   91  A    between atoms: _220  and  _223
REMARK   92  A    between atoms: _223  and  _224
REMARK   93  A    between atoms: _224  and  _225
REMARK   94  A    between atoms: _230  and  _232
REMARK   95  A    between atoms: _232  and  _233
REMARK   96  A    between atoms: _235  and  _237
REMARK   97  A    between atoms: _237  and  _238
REMARK   98  A    between atoms: _237  and  _240
REMARK   99  A    between atoms: _240  and  _241
REMARK  100  A    between atoms: _244  and  _246
REMARK  101  A    between atoms: _246  and  _247
REMARK  102  A    between atoms: _246  and  _249
REMARK  103  A    between atoms: _249  and  _250
REMARK  104  A    between atoms: _253  and  _255
REMARK  105  A    between atoms: _255  and  _256
REMARK  106  A    between atoms: _255  and  _258
REMARK  107  A    between atoms: _258  and  _259
REMARK  108  A    between atoms: _262  and  _264
REMARK  109  A    between atoms: _264  and  _265
REMARK  110  A    between atoms: _264  and  _267
REMARK  111  A    between atoms: _267  and  _268
REMARK  112  A    between atoms: _273  and  _275
REMARK  113  A    between atoms: _275  and  _276
REMARK  114  A    between atoms: _275  and  _278
REMARK  115  A    between atoms: _278  and  _279
REMARK  116  A    between atoms: _279  and  _280
REMARK  117  A    between atoms: _283  and  _285
REMARK  118  A    between atoms: _285  and  _286
REMARK  119  A    between atoms: _289  and  _291
REMARK  120  A    between atoms: _291  and  _292
REMARK  121  A    between atoms: _291  and  _294
REMARK  122  A    between atoms: _294  and  _295
REMARK  123  A    between atoms: _295  and  _296
REMARK  124  A    between atoms: _301  and  _303
REMARK  125  A    between atoms: _303  and  _304
REMARK  126  A    between atoms: _307  and  _309
REMARK  127  A    between atoms: _309  and  _310
REMARK  128  A    between atoms: _309  and  _312
REMARK  129  A    between atoms: _312  and  _313
REMARK  130  A    between atoms: _316  and  _318
REMARK  131  A    between atoms: _318  and  _319
REMARK  132  A    between atoms: _318  and  _321
REMARK  133  A    between atoms: _321  and  _322
REMARK  134  A    between atoms: _325  and  _327
REMARK  135  A    between atoms: _327  and  _328
REMARK  136  A    between atoms: _327  and  _330
REMARK  137  A    between atoms: _330  and  _331
REMARK  138  A    between atoms: _334  and  _336
REMARK  139  A    between atoms: _336  and  _337
REMARK  140  A    between atoms: _336  and  _339
REMARK  141  A    between atoms: _339  and  _340
REMARK  142  A    between atoms: _343  and  _345
REMARK  143  A    between atoms: _345  and  _346
REMARK  144  A    between atoms: _345  and  _348
REMARK  145  A    between atoms: _348  and  _349
REMARK  146  A    between atoms: _351  and  _353
REMARK  147  A    between atoms: _353  and  _354
REMARK  148  A    between atoms: _356  and  _358
REMARK  149  A    between atoms: _358  and  _359
REMARK  150  A    between atoms: _358  and  _361
REMARK  151  A    between atoms: _361  and  _362
REMARK  152  A    between atoms: _365  and  _367
REMARK  153  A    between atoms: _367  and  _368
REMARK  154  A    between atoms: _367  and  _370
REMARK  155  A    between atoms: _370  and  _371
REMARK  156  A    between atoms: _374  and  _376
REMARK  157  A    between atoms: _376  and  _377
REMARK  158  A    between atoms: _376  and  _379
REMARK  159  A    between atoms: _379  and  _380
REMARK  160  A    between atoms: _383  and  _385
REMARK  161  A    between atoms: _385  and  _386
REMARK  162  A    between atoms: _385  and  _388
REMARK  163  A    between atoms: _388  and  _389
REMARK  164  A    between atoms: _392  and  _394
REMARK  165  A    between atoms: _394  and  _395
REMARK  166  A    between atoms: _394  and  _397
REMARK  167  A    between atoms: _397  and  _398
REMARK  168  A    between atoms: _403  and  _404
REMARK  169  A    between atoms: _406  and  _408
REMARK  170  A    between atoms: _408  and  _409
REMARK  171  A    between atoms: _408  and  _411
REMARK  172  A    between atoms: _411  and  _412
REMARK  173  A    between atoms: _412  and  _413
REMARK  174  A    between atoms: _418  and  _420
REMARK  175  A    between atoms: _420  and  _421
REMARK  176  A    between atoms: _420  and  _423
REMARK  177  A    between atoms: _423  and  _424
REMARK  178  A    between atoms: _427  and  _429
REMARK  179  A    between atoms: _429  and  _430
REMARK  180  A    between atoms: _429  and  _432
REMARK  181  A    between atoms: _432  and  _433
REMARK  182  A    between atoms: _438  and  _439
REMARK  183  A    between atoms: _441  and  _443
REMARK  184  A    between atoms: _443  and  _444
REMARK  185  A    between atoms: _443  and  _446
REMARK  186  A    between atoms: _446  and  _447
REMARK  187  A    between atoms: _447  and  _448
REMARK  188  A    between atoms: _453  and  _455
REMARK  189  A    between atoms: _455  and  _456
REMARK  190  A    between atoms: _455  and  _458
REMARK  191  A    between atoms: _458  and  _459
REMARK  192  A    between atoms: _464  and  _466
REMARK  193  A    between atoms: _466  and  _467
REMARK  194  A    between atoms: _466  and  _469
REMARK  195  A    between atoms: _469  and  _470
REMARK  196  A    between atoms: _473  and  _475
REMARK  197  A    between atoms: _475  and  _476
REMARK  198  A    between atoms: _475  and  _478
REMARK  199  A    between atoms: _478  and  _479
REMARK  200  A    between atoms: _489  and  _491
REMARK  201  A    between atoms: _491  and  _492
REMARK  202  A    between atoms: _491  and  _494
REMARK  203  A    between atoms: _494  and  _495
REMARK  204  A    between atoms: _495  and  _496
REMARK  205  A    between atoms: _501  and  _503
REMARK  206  A    between atoms: _503  and  _504
REMARK  207  A    between atoms: _503  and  _506
REMARK  208  A    between atoms: _506  and  _507
REMARK  209  A    between atoms: _509  and  _511
REMARK  210  A    between atoms: _511  and  _512
REMARK  211  A    between atoms: _511  and  _514
REMARK  212  A    between atoms: _514  and  _515
REMARK  213  A    between atoms: _518  and  _520
REMARK  214  A    between atoms: _520  and  _521
REMARK  215  A    between atoms: _520  and  _523
REMARK  216  A    between atoms: _523  and  _524
REMARK  217  A    between atoms: _527  and  _529
REMARK  218  A    between atoms: _529  and  _530
REMARK  219  A    between atoms: _529  and  _532
REMARK  220  A    between atoms: _532  and  _533
REMARK  221  A    between atoms: _536  and  _538
REMARK  222  A    between atoms: _538  and  _539
REMARK  223  A    between atoms: _538  and  _541
REMARK  224  A    between atoms: _541  and  _542
REMARK  225  A    between atoms: _545  and  _547
REMARK  226  A    between atoms: _547  and  _548
REMARK  227  A    between atoms: _550  and  _552
REMARK  228  A    between atoms: _552  and  _553
REMARK  229  A    between atoms: _552  and  _555
REMARK  230  A    between atoms: _555  and  _556
REMARK                            x       y       z     vdW  Elec       q    Type
REMARK                         _______ _______ _______ _____ _____    ______ ____
ROOT
ATOM      1  C   GLY A   1      28.610  28.645  56.076  0.00  0.00    +0.240 C 
ATOM      2  O   GLY A   1      29.683  29.276  56.132  0.00  0.00    -0.274 OA
ATOM      3  N   ASP A   2      28.327  27.791  55.099  0.00  0.00    -0.298 N 
ATOM      4  H   ASP A   2      27.360  27.417  55.010  0.00  0.00    +0.150 HD
ENDROOT
BRANCH   1   5
ATOM      5  CA  GLY A   1      27.533  28.787  57.154  0.00  0.00    +0.169 C 
BRANCH   5   6
ATOM      6  N   GLY A   1      27.553  30.052  57.877  0.00  0.00    -0.236 NA
ATOM      7  H   GLY A   1      27.077  30.879  57.463  0.00  0.00    +0.142 HD
ENDBRANCH   5   6
ENDBRANCH   1   5
BRANCH   3   8
ATOM      8  CA  ASP A   2      29.358  27.365  54.141  0.00  0.00    +0.148 C 
BRANCH   8   9
ATOM      9  C   ASP A   2      29.973  28.550  53.394  0.00  0.00    +0.227 C 
ATOM     10  O   ASP A   2      31.174  28.549  53.075  0.00  0.00    -0.286 OA
ENDBRANCH   8   9
BRANCH   8  11
ATOM     11  CB  ASP A   2      28.763  26.375  53.143  0.00  0.00    +0.142 C 
BRANCH  11  12
ATOM     12  CG  ASP A   2      28.384  25.074  53.783  0.00  0.00    +0.367 C 
ATOM     13  OD2 ASP A   2      28.809  24.810  54.952  0.00  0.00    -0.246 OA
ATOM     14  OD1 ASP A   2      27.661  24.323  53.106  0.00  0.00    -0.246 OA
ENDBRANCH  11  12
ENDBRANCH   8  11
ENDBRANCH   3   8
TORSDOF 6
REMARK  Name = ../refined-set-2016/3fv3/3fv3_pocket.pdb
REMARK  230 active torsions:
REMARK  status: ('A' for Active; 'I' for Inactive)
REMARK    1  A    between atoms: _1  and  _3
REMARK    2  A    between atoms: _3  and  _4
REMARK    3  A    between atoms: _7  and  _8
REMARK    4  A    between atoms: _13  and  _15
REMARK    5  A    between atoms: _15  and  _16
REMARK    6  A    between atoms: _15  and  _18
REMARK    7  A    between atoms: _18  and  _19
REMARK    8  A    between atoms: _21  and  _23
REMARK    9  A    between atoms: _23  and  _24
REMARK   10  A    between atoms: _23  and  _26
REMARK   11  A    between atoms: _26  and  _27
REMARK   12  A    between atoms: _32  and  _33
REMARK   13  A    between atoms: _35  and  _37
REMARK   14  A    between atoms: _37  and  _38
REMARK   15  A    between atoms: _37  and  _40
REMARK   16  A    between atoms: _40  and  _41
REMARK   17  A    between atoms: _44  and  _46
REMARK   18  A    between atoms: _46  and  _47
REMARK   19  A    between atoms: _46  and  _49
REMARK   20  A    between atoms: _49  and  _50
REMARK   21  A    between atoms: _53  and  _55
REMARK   22  A    between atoms: _55  and  _56
REMARK   23  A    between atoms: _55  and  _58
REMARK   24  A    between atoms: _58  and  _59
REMARK   25  A    between atoms: _62  and  _64
REMARK   26  A    between atoms: _64  and  _65
REMARK   27  A    between atoms: _64  and  _67
REMARK   28  A    between atoms: _67  and  _68
REMARK   29  A    between atoms: _71  and  _73
REMARK   30  A    between atoms: _73  and  _74
REMARK   31  A    between atoms: _76  and  _78
REMARK   32  A    between atoms: _78  and  _79
REMARK   33  A    between atoms: _78  and  _81
REMARK   34  A    between atoms: _81  and  _82
REMARK   35  A    between atoms: _84  and  _86
REMARK   36  A    between atoms: _86  and  _87
REMARK   37  A    between atoms: _86  and  _89
REMARK   38  A    between atoms: _89  and  _90
REMARK   39  A    between atoms: _92  and  _94
REMARK   40  A    between atoms: _94  and  _95
REMARK   41  A    between atoms: _94  and  _97
REMARK   42  A    between atoms: _97  and  _98
REMARK   43  A    between atoms: _101  and  _103
REMARK   44  A    between atoms: _103  and  _104
REMARK   45  A    between atoms: _103  and  _106
REMARK   46  A    between atoms: _106  and  _107
REMARK   47  A    between atoms: _117  and  _119
REMARK   48  A    between atoms: _119  and  _120
REMARK   49  A    between atoms: _119  and  _122
REMARK   50  A    between atoms: _122  and  _123
REMARK   51  A    between atoms: _126  and  _128
REMARK   52  A    between atoms: _128  and  _129
REMARK   53  A    between atoms: _128  and  _131
REMARK   54  A    between atoms: _131  and  _132
REMARK   55  A    between atoms: _132  and  _133
REMARK   56  A    between atoms: _133  and  _134
REMARK   57  A    between atoms: _143  and  _145
REMARK   58  A    between atoms: _145  and  _146
REMARK   59  A    between atoms: _145  and  _148
REMARK   60  A    between atoms: _148  and  _149
REMARK   61  A    between atoms: _154  and  _155
REMARK   62  A    between atoms: _157  and  _159
REMARK   63  A    between atoms: _159  and  _160
REMARK   64  A    between atoms: _162  and  _164
REMARK   65  A    between atoms: _164  and  _165
REMARK   66  A    between atoms: _164  and  _167
REMARK   67  A    between atoms: _167  and  _168
REMARK   68  A    between atoms: _171  and  _173
REMARK   69  A    between atoms: _173  and  _174
REMARK   70  A    between atoms: _176  and  _178
REMARK   71  A    between atoms: _178  and  _179
REMARK   72  A    between atoms: _178  and  _181
REMARK   73  A    between atoms: _181  and  _182
REMARK   74  A    between atoms: _184  and  _186
REMARK   75  A    between atoms: _186  and  _187
REMARK   76  A    between atoms: _186  and  _189
REMARK   77  A    between atoms: _189  and  _190
REMARK   78  A    between atoms: _193  and  _195
REMARK   79  A    between atoms: _195  and  _196
REMARK   80  A    between atoms: _195  and  _198
REMARK   81  A    between atoms: _198  and  _199
REMARK   82  A    between atoms: _201  and  _203
REMARK   83  A    between atoms: _203  and  _204
REMARK   84  A    between atoms: _203  and  _206
REMARK   85  A    between atoms: _209  and  _211
REMARK   86  A    between atoms: _211  and  _212
REMARK   87  A    between atoms: _211  and  _214
REMARK   88  A    between atoms: _214  and  _215
REMARK   89  A    between atoms: _218  and  _220
REMARK   90  A    between atoms: _220  and  _221
REMARK   91  A    between atoms: _220  and  _223
REMARK   92  A    between atoms: _223  and  _224
REMARK   93  A    between atoms: _224  and  _225
REMARK   94  A    between atoms: _230  and  _232
REMARK   95  A    between atoms: _232  and  _233
REMARK   96  A    between atoms: _235  and  _237
REMARK   97  A    between atoms: _237  and  _238
REMARK   98  A    between atoms: _237  and  _240
REMARK   99  A    between atoms: _240  and  _241
REMARK  100  A    between atoms: _244  and  _246
REMARK  101  A    between atoms: _246  and  _247
REMARK  102  A    between atoms: _246  and  _249
REMARK  103  A    between atoms: _249  and  _250
REMARK  104  A    between atoms: _253  and  _255
REMARK  105  A    between atoms: _255  and  _256
REMARK  106  A    between atoms: _255  and  _258
REMARK  107  A    between atoms: _258  and  _259
REMARK  108  A    between atoms: _262  and  _264
REMARK  109  A    between atoms: _264  and  _265
REMARK  110  A    between atoms: _264  and  _267
REMARK  111  A    between atoms: _267  and  _268
REMARK  112  A    between atoms: _273  and  _275
REMARK  113  A    between atoms: _275  and  _276
REMARK  114  A    between atoms: _275  and  _278
REMARK  115  A    between atoms: _278  and  _279
REMARK  116  A    between atoms: _279  and  _280
REMARK  117  A    between atoms: _283  and  _285
REMARK  118  A    between atoms: _285  and  _286
REMARK  119  A    between atoms: _289  and  _291
REMARK  120  A    between atoms: _291  and  _292
REMARK  121  A    between atoms: _291  and  _294
REMARK  122  A    between atoms: _294  and  _295
REMARK  123  A    between atoms: _295  and  _296
REMARK  124  A    between atoms: _301  and  _303
REMARK  125  A    between atoms: _303  and  _304
REMARK  126  A    between atoms: _307  and  _309
REMARK  127  A    between atoms: _309  and  _310
REMARK  128  A    between atoms: _309  and  _312
REMARK  129  A    between atoms: _312  and  _313
REMARK  130  A    between atoms: _316  and  _318
REMARK  131  A    between atoms: _318  and  _319
REMARK  132  A    between atoms: _318  and  _321
REMARK  133  A    between atoms: _321  and  _322
REMARK  134  A    between atoms: _325  and  _327
REMARK  135  A    between atoms: _327  and  _328
REMARK  136  A    between atoms: _327  and  _330
REMARK  137  A    between atoms: _330  and  _331
REMARK  138  A    between atoms: _334  and  _336
REMARK  139  A    between atoms: _336  and  _337
REMARK  140  A    between atoms: _336  and  _339
REMARK  141  A    between atoms: _339  and  _340
REMARK  142  A    between atoms: _343  and  _345
REMARK  143  A    between atoms: _345  and  _346
REMARK  144  A    between atoms: _345  and  _348
REMARK  145  A    between atoms: _348  and  _349
REMARK  146  A    between atoms: _351  and  _353
REMARK  147  A    between atoms: _353  and  _354
REMARK  148  A    between atoms: _356  and  _358
REMARK  149  A    between atoms: _358  and  _359
REMARK  150  A    between atoms: _358  and  _361
REMARK  151  A    between atoms: _361  and  _362
REMARK  152  A    between atoms: _365  and  _367
REMARK  153  A    between atoms: _367  and  _368
REMARK  154  A    between atoms: _367  and  _370
REMARK  155  A    between atoms: _370  and  _371
REMARK  156  A    between atoms: _374  and  _376
REMARK  157  A    between atoms: _376  and  _377
REMARK  158  A    between atoms: _376  and  _379
REMARK  159  A    between atoms: _379  and  _380
REMARK  160  A    between atoms: _383  and  _385
REMARK  161  A    between atoms: _385  and  _386
REMARK  162  A    between atoms: _385  and  _388
REMARK  163  A    between atoms: _388  and  _389
REMARK  164  A    between atoms: _392  and  _394
REMARK  165  A    between atoms: _394  and  _395
REMARK  166  A    between atoms: _394  and  _397
REMARK  167  A    between atoms: _397  and  _398
REMARK  168  A    between atoms: _403  and  _404
REMARK  169  A    between atoms: _406  and  _408
REMARK  170  A    between atoms: _408  and  _409
REMARK  171  A    between atoms: _408  and  _411
REMARK  172  A    between atoms: _411  and  _412
REMARK  173  A    between atoms: _412  and  _413
REMARK  174  A    between atoms: _418  and  _420
REMARK  175  A    between atoms: _420  and  _421
REMARK  176  A    between atoms: _420  and  _423
REMARK  177  A    between atoms: _423  and  _424
REMARK  178  A    between atoms: _427  and  _429
REMARK  179  A    between atoms: _429  and  _430
REMARK  180  A    between atoms: _429  and  _432
REMARK  181  A    between atoms: _432  and  _433
REMARK  182  A    between atoms: _438  and  _439
REMARK  183  A    between atoms: _441  and  _443
REMARK  184  A    between atoms: _443  and  _444
REMARK  185  A    between atoms: _443  and  _446
REMARK  186  A    between atoms: _446  and  _447
REMARK  187  A    between atoms: _447  and  _448
REMARK  188  A    between atoms: _453  and  _455
REMARK  189  A    between atoms: _455  and  _456
REMARK  190  A    between atoms: _455  and  _458
REMARK  191  A    between atoms: _458  and  _459
REMARK  192  A    between atoms: _464  and  _466
REMARK  193  A    between atoms: _466  and  _467
REMARK  194  A    between atoms: _466  and  _469
REMARK  195  A    between atoms: _469  and  _470
REMARK  196  A    between atoms: _473  and  _475
REMARK  197  A    between atoms: _475  and  _476
REMARK  198  A    between atoms: _475  and  _478
REMARK  199  A    between atoms: _478  and  _479
REMARK  200  A    between atoms: _489  and  _491
REMARK  201  A    between atoms: _491  and  _492
REMARK  202  A    between atoms: _491  and  _494
REMARK  203  A    between atoms: _494  and  _495
REMARK  204  A    between atoms: _495  and  _496
REMARK  205  A    between atoms: _501  and  _503
REMARK  206  A    between atoms: _503  and  _504
REMARK  207  A    between atoms: _503  and  _506
REMARK  208  A    between atoms: _506  and  _507
REMARK  209  A    between atoms: _509  and  _511
REMARK  210  A    between atoms: _511  and  _512
REMARK  211  A    between atoms: _511  and  _514
REMARK  212  A    between atoms: _514  and  _515
REMARK  213  A    between atoms: _518  and  _520
REMARK  214  A    between atoms: _520  and  _521
REMARK  215  A    between atoms: _520  and  _523
REMARK  216  A    between atoms: _523  and  _524
REMARK  217  A    between atoms: _527  and  _529
REMARK  218  A    between atoms: _529  and  _530
REMARK  219  A    between atoms: _529  and  _532
REMARK  220  A    between atoms: _532  and  _533
REMARK  221  A    between atoms: _536  and  _538
REMARK  222  A    between atoms: _538  and  _539
REMARK  223  A    between atoms: _538  and  _541
REMARK  224  A    between atoms: _541  and  _542
REMARK  225  A    between atoms: _545  and  _547
REMARK  226  A    between atoms: _547  and  _548
REMARK  227  A    between atoms: _550  and  _552
REMARK  228  A    between atoms: _552  and  _553
REMARK  229  A    between atoms: _552  and  _555
REMARK  230  A    between atoms: _555  and  _556
REMARK                            x       y       z     vdW  Elec       q    Type
REMARK                         _______ _______ _______ _____ _____    ______ ____
ROOT
ATOM      1  O   HOH     1      21.278  28.367  54.307  0.00  0.00    +0.000 OA
ENDROOT
TORSDOF 0
REMARK  Name = ../refined-set-2016/3fv3/3fv3_pocket.pdb
REMARK  230 active torsions:
REMARK  status: ('A' for Active; 'I' for Inactive)
REMARK    1  A    between atoms: _1  and  _3
REMARK    2  A    between atoms: _3  and  _4
REMARK    3  A    between atoms: _7  and  _8
REMARK    4  A    between atoms: _13  and  _15
REMARK    5  A    between atoms: _15  and  _16
REMARK    6  A    between atoms: _15  and  _18
REMARK    7  A    between atoms: _18  and  _19
REMARK    8  A    between atoms: _21  and  _23
REMARK    9  A    between atoms: _23  and  _24
REMARK   10  A    between atoms: _23  and  _26
REMARK   11  A    between atoms: _26  and  _27
REMARK   12  A    between atoms: _32  and  _33
REMARK   13  A    between atoms: _35  and  _37
REMARK   14  A    between atoms: _37  and  _38
REMARK   15  A    between atoms: _37  and  _40
REMARK   16  A    between atoms: _40  and  _41
REMARK   17  A    between atoms: _44  and  _46
REMARK   18  A    between atoms: _46  and  _47
REMARK   19  A    between atoms: _46  and  _49
REMARK   20  A    between atoms: _49  and  _50
REMARK   21  A    between atoms: _53  and  _55
REMARK   22  A    between atoms: _55  and  _56
REMARK   23  A    between atoms: _55  and  _58
REMARK   24  A    between atoms: _58  and  _59
REMARK   25  A    between atoms: _62  and  _64
REMARK   26  A    between atoms: _64  and  _65
REMARK   27  A    between atoms: _64  and  _67
REMARK   28  A    between atoms: _67  and  _68
REMARK   29  A    between atoms: _71  and  _73
REMARK   30  A    between atoms: _73  and  _74
REMARK   31  A    between atoms: _76  and  _78
REMARK   32  A    between atoms: _78  and  _79
REMARK   33  A    between atoms: _78  and  _81
REMARK   34  A    between atoms: _81  and  _82
REMARK   35  A    between atoms: _84  and  _86
REMARK   36  A    between atoms: _86  and  _87
REMARK   37  A    between atoms: _86  and  _89
REMARK   38  A    between atoms: _89  and  _90
REMARK   39  A    between atoms: _92  and  _94
REMARK   40  A    between atoms: _94  and  _95
REMARK   41  A    between atoms: _94  and  _97
REMARK   42  A    between atoms: _97  and  _98
REMARK   43  A    between atoms: _101  and  _103
REMARK   44  A    between atoms: _103  and  _104
REMARK   45  A    between atoms: _103  and  _106
REMARK   46  A    between atoms: _106  and  _107
REMARK   47  A    between atoms: _117  and  _119
REMARK   48  A    between atoms: _119  and  _120
REMARK   49  A    between atoms: _119  and  _122
REMARK   50  A    between atoms: _122  and  _123
REMARK   51  A    between atoms: _126  and  _128
REMARK   52  A    between atoms: _128  and  _129
REMARK   53  A    between atoms: _128  and  _131
REMARK   54  A    between atoms: _131  and  _132
REMARK   55  A    between atoms: _132  and  _133
REMARK   56  A    between atoms: _133  and  _134
REMARK   57  A    between atoms: _143  and  _145
REMARK   58  A    between atoms: _145  and  _146
REMARK   59  A    between atoms: _145  and  _148
REMARK   60  A    between atoms: _148  and  _149
REMARK   61  A    between atoms: _154  and  _155
REMARK   62  A    between atoms: _157  and  _159
REMARK   63  A    between atoms: _159  and  _160
REMARK   64  A    between atoms: _162  and  _164
REMARK   65  A    between atoms: _164  and  _165
REMARK   66  A    between atoms: _164  and  _167
REMARK   67  A    between atoms: _167  and  _168
REMARK   68  A    between atoms: _171  and  _173
REMARK   69  A    between atoms: _173  and  _174
REMARK   70  A    between atoms: _176  and  _178
REMARK   71  A    between atoms: _178  and  _179
REMARK   72  A    between atoms: _178  and  _181
REMARK   73  A    between atoms: _181  and  _182
REMARK   74  A    between atoms: _184  and  _186
REMARK   75  A    between atoms: _186  and  _187
REMARK   76  A    between atoms: _186  and  _189
REMARK   77  A    between atoms: _189  and  _190
REMARK   78  A    between atoms: _193  and  _195
REMARK   79  A    between atoms: _195  and  _196
REMARK   80  A    between atoms: _195  and  _198
REMARK   81  A    between atoms: _198  and  _199
REMARK   82  A    between atoms: _201  and  _203
REMARK   83  A    between atoms: _203  and  _204
REMARK   84  A    between atoms: _203  and  _206
REMARK   85  A    between atoms: _209  and  _211
REMARK   86  A    between atoms: _211  and  _212
REMARK   87  A    between atoms: _211  and  _214
REMARK   88  A    between atoms: _214  and  _215
REMARK   89  A    between atoms: _218  and  _220
REMARK   90  A    between atoms: _220  and  _221
REMARK   91  A    between atoms: _220  and  _223
REMARK   92  A    between atoms: _223  and  _224
REMARK   93  A    between atoms: _224  and  _225
REMARK   94  A    between atoms: _230  and  _232
REMARK   95  A    between atoms: _232  and  _233
REMARK   96  A    between atoms: _235  and  _237
REMARK   97  A    between atoms: _237  and  _238
REMARK   98  A    between atoms: _237  and  _240
REMARK   99  A    between atoms: _240  and  _241
REMARK  100  A    between atoms: _244  and  _246
REMARK  101  A    between atoms: _246  and  _247
REMARK  102  A    between atoms: _246  and  _249
REMARK  103  A    between atoms: _249  and  _250
REMARK  104  A    between atoms: _253  and  _255
REMARK  105  A    between atoms: _255  and  _256
REMARK  106  A    between atoms: _255  and  _258
REMARK  107  A    between atoms: _258  and  _259
REMARK  108  A    between atoms: _262  and  _264
REMARK  109  A    between atoms: _264  and  _265
REMARK  110  A    between atoms: _264  and  _267
REMARK  111  A    between atoms: _267  and  _268
REMARK  112  A    between atoms: _273  and  _275
REMARK  113  A    between atoms: _275  and  _276
REMARK  114  A    between atoms: _275  and  _278
REMARK  115  A    between atoms: _278  and  _279
REMARK  116  A    between atoms: _279  and  _280
REMARK  117  A    between atoms: _283  and  _285
REMARK  118  A    between atoms: _285  and  _286
REMARK  119  A    between atoms: _289  and  _291
REMARK  120  A    between atoms: _291  and  _292
REMARK  121  A    between atoms: _291  and  _294
REMARK  122  A    between atoms: _294  and  _295
REMARK  123  A    between atoms: _295  and  _296
REMARK  124  A    between atoms: _301  and  _303
REMARK  125  A    between atoms: _303  and  _304
REMARK  126  A    between atoms: _307  and  _309
REMARK  127  A    between atoms: _309  and  _310
REMARK  128  A    between atoms: _309  and  _312
REMARK  129  A    between atoms: _312  and  _313
REMARK  130  A    between atoms: _316  and  _318
REMARK  131  A    between atoms: _318  and  _319
REMARK  132  A    between atoms: _318  and  _321
REMARK  133  A    between atoms: _321  and  _322
REMARK  134  A    between atoms: _325  and  _327
REMARK  135  A    between atoms: _327  and  _328
REMARK  136  A    between atoms: _327  and  _330
REMARK  137  A    between atoms: _330  and  _331
REMARK  138  A    between atoms: _334  and  _336
REMARK  139  A    between atoms: _336  and  _337
REMARK  140  A    between atoms: _336  and  _339
REMARK  141  A    between atoms: _339  and  _340
REMARK  142  A    between atoms: _343  and  _345
REMARK  143  A    between atoms: _345  and  _346
REMARK  144  A    between atoms: _345  and  _348
REMARK  145  A    between atoms: _348  and  _349
REMARK  146  A    between atoms: _351  and  _353
REMARK  147  A    between atoms: _353  and  _354
REMARK  148  A    between atoms: _356  and  _358
REMARK  149  A    between atoms: _358  and  _359
REMARK  150  A    between atoms: _358  and  _361
REMARK  151  A    between atoms: _361  and  _362
REMARK  152  A    between atoms: _365  and  _367
REMARK  153  A    between atoms: _367  and  _368
REMARK  154  A    between atoms: _367  and  _370
REMARK  155  A    between atoms: _370  and  _371
REMARK  156  A    between atoms: _374  and  _376
REMARK  157  A    between atoms: _376  and  _377
REMARK  158  A    between atoms: _376  and  _379
REMARK  159  A    between atoms: _379  and  _380
REMARK  160  A    between atoms: _383  and  _385
REMARK  161  A    between atoms: _385  and  _386
REMARK  162  A    between atoms: _385  and  _388
REMARK  163  A    between atoms: _388  and  _389
REMARK  164  A    between atoms: _392  and  _394
REMARK  165  A    between atoms: _394  and  _395
REMARK  166  A    between atoms: _394  and  _397
REMARK  167  A    between atoms: _397  and  _398
REMARK  168  A    between atoms: _403  and  _404
REMARK  169  A    between atoms: _406  and  _408
REMARK  170  A    between atoms: _408  and  _409
REMARK  171  A    between atoms: _408  and  _411
REMARK  172  A    between atoms: _411  and  _412
REMARK  173  A    between atoms: _412  and  _413
REMARK  174  A    between atoms: _418  and  _420
REMARK  175  A    between atoms: _420  and  _421
REMARK  176  A    between atoms: _420  and  _423
REMARK  177  A    between atoms: _423  and  _424
REMARK  178  A    between atoms: _427  and  _429
REMARK  179  A    between atoms: _429  and  _430
REMARK  180  A    between atoms: _429  and  _432
REMARK  181  A    between atoms: _432  and  _433
REMARK  182  A    between atoms: _438  and  _439
REMARK  183  A    between atoms: _441  and  _443
REMARK  184  A    between atoms: _443  and  _444
REMARK  185  A    between atoms: _443  and  _446
REMARK  186  A    between atoms: _446  and  _447
REMARK  187  A    between atoms: _447  and  _448
REMARK  188  A    between atoms: _453  and  _455
REMARK  189  A    between atoms: _455  and  _456
REMARK  190  A    between atoms: _455  and  _458
REMARK  191  A    between atoms: _458  and  _459
REMARK  192  A    between atoms: _464  and  _466
REMARK  193  A    between atoms: _466  and  _467
REMARK  194  A    between atoms: _466  and  _469
REMARK  195  A    between atoms: _469  and  _470
REMARK  196  A    between atoms: _473  and  _475
REMARK  197  A    between atoms: _475  and  _476
REMARK  198  A    between atoms: _475  and  _478
REMARK  199  A    between atoms: _478  and  _479
REMARK  200  A    between atoms: _489  and  _491
REMARK  201  A    between atoms: _491  and  _492
REMARK  202  A    between atoms: _491  and  _494
REMARK  203  A    between atoms: _494  and  _495
REMARK  204  A    between atoms: _495  and  _496
REMARK  205  A    between atoms: _501  and  _503
REMARK  206  A    between atoms: _503  and  _504
REMARK  207  A    between atoms: _503  and  _506
REMARK  208  A    between atoms: _506  and  _507
REMARK  209  A    between atoms: _509  and  _511
REMARK  210  A    between atoms: _511  and  _512
REMARK  211  A    between atoms: _511  and  _514
REMARK  212  A    between atoms: _514  and  _515
REMARK  213  A    between atoms: _518  and  _520
REMARK  214  A    between atoms: _520  and  _521
REMARK  215  A    between atoms: _520  and  _523
REMARK  216  A    between atoms: _523  and  _524
REMARK  217  A    between atoms: _527  and  _529
REMARK  218  A    between atoms: _529  and  _530
REMARK  219  A    between atoms: _529  and  _532
REMARK  220  A    between atoms: _532  and  _533
REMARK  221  A    between atoms: _536  and  _538
REMARK  222  A    between atoms: _538  and  _539
REMARK  223  A    between atoms: _538  and  _541
REMARK  224  A    between atoms: _541  and  _542
REMARK  225  A    between atoms: _545  and  _547
REMARK  226  A    between atoms: _547  and  _548
REMARK  227  A    between atoms: _550  and  _552
REMARK  228  A    between atoms: _552  and  _553
REMARK  229  A    between atoms: _552  and  _555
REMARK  230  A    between atoms: _555  and  _556
REMARK                            x       y       z     vdW  Elec       q    Type
REMARK                         _______ _______ _______ _____ _____    ______ ____
ROOT
ATOM      1  O   HOH     1      17.101  20.225  54.817  0.00  0.00    +0.000 OA
ENDROOT
TORSDOF 0
REMARK  Name = ../refined-set-2016/3fv3/3fv3_pocket.pdb
REMARK  230 active torsions:
REMARK  status: ('A' for Active; 'I' for Inactive)
REMARK    1  A    between atoms: _1  and  _3
REMARK    2  A    between atoms: _3  and  _4
REMARK    3  A    between atoms: _7  and  _8
REMARK    4  A    between atoms: _13  and  _15
REMARK    5  A    between atoms: _15  and  _16
REMARK    6  A    between atoms: _15  and  _18
REMARK    7  A    between atoms: _18  and  _19
REMARK    8  A    between atoms: _21  and  _23
REMARK    9  A    between atoms: _23  and  _24
REMARK   10  A    between atoms: _23  and  _26
REMARK   11  A    between atoms: _26  and  _27
REMARK   12  A    between atoms: _32  and  _33
REMARK   13  A    between atoms: _35  and  _37
REMARK   14  A    between atoms: _37  and  _38
REMARK   15  A    between atoms: _37  and  _40
REMARK   16  A    between atoms: _40  and  _41
REMARK   17  A    between atoms: _44  and  _46
REMARK   18  A    between atoms: _46  and  _47
REMARK   19  A    between atoms: _46  and  _49
REMARK   20  A    between atoms: _49  and  _50
REMARK   21  A    between atoms: _53  and  _55
REMARK   22  A    between atoms: _55  and  _56
REMARK   23  A    between atoms: _55  and  _58
REMARK   24  A    between atoms: _58  and  _59
REMARK   25  A    between atoms: _62  and  _64
REMARK   26  A    between atoms: _64  and  _65
REMARK   27  A    between atoms: _64  and  _67
REMARK   28  A    between atoms: _67  and  _68
REMARK   29  A    between atoms: _71  and  _73
REMARK   30  A    between atoms: _73  and  _74
REMARK   31  A    between atoms: _76  and  _78
REMARK   32  A    between atoms: _78  and  _79
REMARK   33  A    between atoms: _78  and  _81
REMARK   34  A    between atoms: _81  and  _82
REMARK   35  A    between atoms: _84  and  _86
REMARK   36  A    between atoms: _86  and  _87
REMARK   37  A    between atoms: _86  and  _89
REMARK   38  A    between atoms: _89  and  _90
REMARK   39  A    between atoms: _92  and  _94
REMARK   40  A    between atoms: _94  and  _95
REMARK   41  A    between atoms: _94  and  _97
REMARK   42  A    between atoms: _97  and  _98
REMARK   43  A    between atoms: _101  and  _103
REMARK   44  A    between atoms: _103  and  _104
REMARK   45  A    between atoms: _103  and  _106
REMARK   46  A    between atoms: _106  and  _107
REMARK   47  A    between atoms: _117  and  _119
REMARK   48  A    between atoms: _119  and  _120
REMARK   49  A    between atoms: _119  and  _122
REMARK   50  A    between atoms: _122  and  _123
REMARK   51  A    between atoms: _126  and  _128
REMARK   52  A    between atoms: _128  and  _129
REMARK   53  A    between atoms: _128  and  _131
REMARK   54  A    between atoms: _131  and  _132
REMARK   55  A    between atoms: _132  and  _133
REMARK   56  A    between atoms: _133  and  _134
REMARK   57  A    between atoms: _143  and  _145
REMARK   58  A    between atoms: _145  and  _146
REMARK   59  A    between atoms: _145  and  _148
REMARK   60  A    between atoms: _148  and  _149
REMARK   61  A    between atoms: _154  and  _155
REMARK   62  A    between atoms: _157  and  _159
REMARK   63  A    between atoms: _159  and  _160
REMARK   64  A    between atoms: _162  and  _164
REMARK   65  A    between atoms: _164  and  _165
REMARK   66  A    between atoms: _164  and  _167
REMARK   67  A    between atoms: _167  and  _168
REMARK   68  A    between atoms: _171  and  _173
REMARK   69  A    between atoms: _173  and  _174
REMARK   70  A    between atoms: _176  and  _178
REMARK   71  A    between atoms: _178  and  _179
REMARK   72  A    between atoms: _178  and  _181
REMARK   73  A    between atoms: _181  and  _182
REMARK   74  A    between atoms: _184  and  _186
REMARK   75  A    between atoms: _186  and  _187
REMARK   76  A    between atoms: _186  and  _189
REMARK   77  A    between atoms: _189  and  _190
REMARK   78  A    between atoms: _193  and  _195
REMARK   79  A    between atoms: _195  and  _196
REMARK   80  A    between atoms: _195  and  _198
REMARK   81  A    between atoms: _198  and  _199
REMARK   82  A    between atoms: _201  and  _203
REMARK   83  A    between atoms: _203  and  _204
REMARK   84  A    between atoms: _203  and  _206
REMARK   85  A    between atoms: _209  and  _211
REMARK   86  A    between atoms: _211  and  _212
REMARK   87  A    between atoms: _211  and  _214
REMARK   88  A    between atoms: _214  and  _215
REMARK   89  A    between atoms: _218  and  _220
REMARK   90  A    between atoms: _220  and  _221
REMARK   91  A    between atoms: _220  and  _223
REMARK   92  A    between atoms: _223  and  _224
REMARK   93  A    between atoms: _224  and  _225
REMARK   94  A    between atoms: _230  and  _232
REMARK   95  A    between atoms: _232  and  _233
REMARK   96  A    between atoms: _235  and  _237
REMARK   97  A    between atoms: _237  and  _238
REMARK   98  A    between atoms: _237  and  _240
REMARK   99  A    between atoms: _240  and  _241
REMARK  100  A    between atoms: _244  and  _246
REMARK  101  A    between atoms: _246  and  _247
REMARK  102  A    between atoms: _246  and  _249
REMARK  103  A    between atoms: _249  and  _250
REMARK  104  A    between atoms: _253  and  _255
REMARK  105  A    between atoms: _255  and  _256
REMARK  106  A    between atoms: _255  and  _258
REMARK  107  A    between atoms: _258  and  _259
REMARK  108  A    between atoms: _262  and  _264
REMARK  109  A    between atoms: _264  and  _265
REMARK  110  A    between atoms: _264  and  _267
REMARK  111  A    between atoms: _267  and  _268
REMARK  112  A    between atoms: _273  and  _275
REMARK  113  A    between atoms: _275  and  _276
REMARK  114  A    between atoms: _275  and  _278
REMARK  115  A    between atoms: _278  and  _279
REMARK  116  A    between atoms: _279  and  _280
REMARK  117  A    between atoms: _283  and  _285
REMARK  118  A    between atoms: _285  and  _286
REMARK  119  A    between atoms: _289  and  _291
REMARK  120  A    between atoms: _291  and  _292
REMARK  121  A    between atoms: _291  and  _294
REMARK  122  A    between atoms: _294  and  _295
REMARK  123  A    between atoms: _295  and  _296
REMARK  124  A    between atoms: _301  and  _303
REMARK  125  A    between atoms: _303  and  _304
REMARK  126  A    between atoms: _307  and  _309
REMARK  127  A    between atoms: _309  and  _310
REMARK  128  A    between atoms: _309  and  _312
REMARK  129  A    between atoms: _312  and  _313
REMARK  130  A    between atoms: _316  and  _318
REMARK  131  A    between atoms: _318  and  _319
REMARK  132  A    between atoms: _318  and  _321
REMARK  133  A    between atoms: _321  and  _322
REMARK  134  A    between atoms: _325  and  _327
REMARK  135  A    between atoms: _327  and  _328
REMARK  136  A    between atoms: _327  and  _330
REMARK  137  A    between atoms: _330  and  _331
REMARK  138  A    between atoms: _334  and  _336
REMARK  139  A    between atoms: _336  and  _337
REMARK  140  A    between atoms: _336  and  _339
REMARK  141  A    between atoms: _339  and  _340
REMARK  142  A    between atoms: _343  and  _345
REMARK  143  A    between atoms: _345  and  _346
REMARK  144  A    between atoms: _345  and  _348
REMARK  145  A    between atoms: _348  and  _349
REMARK  146  A    between atoms: _351  and  _353
REMARK  147  A    between atoms: _353  and  _354
REMARK  148  A    between atoms: _356  and  _358
REMARK  149  A    between atoms: _358  and  _359
REMARK  150  A    between atoms: _358  and  _361
REMARK  151  A    between atoms: _361  and  _362
REMARK  152  A    between atoms: _365  and  _367
REMARK  153  A    between atoms: _367  and  _368
REMARK  154  A    between atoms: _367  and  _370
REMARK  155  A    between atoms: _370  and  _371
REMARK  156  A    between atoms: _374  and  _376
REMARK  157  A    between atoms: _376  and  _377
REMARK  158  A    between atoms: _376  and  _379
REMARK  159  A    between atoms: _379  and  _380
REMARK  160  A    between atoms: _383  and  _385
REMARK  161  A    between atoms: _385  and  _386
REMARK  162  A    between atoms: _385  and  _388
REMARK  163  A    between atoms: _388  and  _389
REMARK  164  A    between atoms: _392  and  _394
REMARK  165  A    between atoms: _394  and  _395
REMARK  166  A    between atoms: _394  and  _397
REMARK  167  A    between atoms: _397  and  _398
REMARK  168  A    between atoms: _403  and  _404
REMARK  169  A    between atoms: _406  and  _408
REMARK  170  A    between atoms: _408  and  _409
REMARK  171  A    between atoms: _408  and  _411
REMARK  172  A    between atoms: _411  and  _412
REMARK  173  A    between atoms: _412  and  _413
REMARK  174  A    between atoms: _418  and  _420
REMARK  175  A    between atoms: _420  and  _421
REMARK  176  A    between atoms: _420  and  _423
REMARK  177  A    between atoms: _423  and  _424
REMARK  178  A    between atoms: _427  and  _429
REMARK  179  A    between atoms: _429  and  _430
REMARK  180  A    between atoms: _429  and  _432
REMARK  181  A    between atoms: _432  and  _433
REMARK  182  A    between atoms: _438  and  _439
REMARK  183  A    between atoms: _441  and  _443
REMARK  184  A    between atoms: _443  and  _444
REMARK  185  A    between atoms: _443  and  _446
REMARK  186  A    between atoms: _446  and  _447
REMARK  187  A    between atoms: _447  and  _448
REMARK  188  A    between atoms: _453  and  _455
REMARK  189  A    between atoms: _455  and  _456
REMARK  190  A    between atoms: _455  and  _458
REMARK  191  A    between atoms: _458  and  _459
REMARK  192  A    between atoms: _464  and  _466
REMARK  193  A    between atoms: _466  and  _467
REMARK  194  A    between atoms: _466  and  _469
REMARK  195  A    between atoms: _469  and  _470
REMARK  196  A    between atoms: _473  and  _475
REMARK  197  A    between atoms: _475  and  _476
REMARK  198  A    between atoms: _475  and  _478
REMARK  199  A    between atoms: _478  and  _479
REMARK  200  A    between atoms: _489  and  _491
REMARK  201  A    between atoms: _491  and  _492
REMARK  202  A    between atoms: _491  and  _494
REMARK  203  A    between atoms: _494  and  _495
REMARK  204  A    between atoms: _495  and  _496
REMARK  205  A    between atoms: _501  and  _503
REMARK  206  A    between atoms: _503  and  _504
REMARK  207  A    between atoms: _503  and  _506
REMARK  208  A    between atoms: _506  and  _507
REMARK  209  A    between atoms: _509  and  _511
REMARK  210  A    between atoms: _511  and  _512
REMARK  211  A    between atoms: _511  and  _514
REMARK  212  A    between atoms: _514  and  _515
REMARK  213  A    between atoms: _518  and  _520
REMARK  214  A    between atoms: _520  and  _521
REMARK  215  A    between atoms: _520  and  _523
REMARK  216  A    between atoms: _523  and  _524
REMARK  217  A    between atoms: _527  and  _529
REMARK  218  A    between atoms: _529  and  _530
REMARK  219  A    between atoms: _529  and  _532
REMARK  220  A    between atoms: _532  and  _533
REMARK  221  A    between atoms: _536  and  _538
REMARK  222  A    between atoms: _538  and  _539
REMARK  223  A    between atoms: _538  and  _541
REMARK  224  A    between atoms: _541  and  _542
REMARK  225  A    between atoms: _545  and  _547
REMARK  226  A    between atoms: _547  and  _548
REMARK  227  A    between atoms: _550  and  _552
REMARK  228  A    between atoms: _552  and  _553
REMARK  229  A    between atoms: _552  and  _555
REMARK  230  A    between atoms: _555  and  _556
REMARK                            x       y       z     vdW  Elec       q    Type
REMARK                         _______ _______ _______ _____ _____    ______ ____
ROOT
ATOM      1  O   HOH     1      21.414  16.985  67.286  0.00  0.00    +0.000 OA
ENDROOT
TORSDOF 0
REMARK  Name = ../refined-set-2016/3fv3/3fv3_pocket.pdb
REMARK  230 active torsions:
REMARK  status: ('A' for Active; 'I' for Inactive)
REMARK    1  A    between atoms: _1  and  _3
REMARK    2  A    between atoms: _3  and  _4
REMARK    3  A    between atoms: _7  and  _8
REMARK    4  A    between atoms: _13  and  _15
REMARK    5  A    between atoms: _15  and  _16
REMARK    6  A    between atoms: _15  and  _18
REMARK    7  A    between atoms: _18  and  _19
REMARK    8  A    between atoms: _21  and  _23
REMARK    9  A    between atoms: _23  and  _24
REMARK   10  A    between atoms: _23  and  _26
REMARK   11  A    between atoms: _26  and  _27
REMARK   12  A    between atoms: _32  and  _33
REMARK   13  A    between atoms: _35  and  _37
REMARK   14  A    between atoms: _37  and  _38
REMARK   15  A    between atoms: _37  and  _40
REMARK   16  A    between atoms: _40  and  _41
REMARK   17  A    between atoms: _44  and  _46
REMARK   18  A    between atoms: _46  and  _47
REMARK   19  A    between atoms: _46  and  _49
REMARK   20  A    between atoms: _49  and  _50
REMARK   21  A    between atoms: _53  and  _55
REMARK   22  A    between atoms: _55  and  _56
REMARK   23  A    between atoms: _55  and  _58
REMARK   24  A    between atoms: _58  and  _59
REMARK   25  A    between atoms: _62  and  _64
REMARK   26  A    between atoms: _64  and  _65
REMARK   27  A    between atoms: _64  and  _67
REMARK   28  A    between atoms: _67  and  _68
REMARK   29  A    between atoms: _71  and  _73
REMARK   30  A    between atoms: _73  and  _74
REMARK   31  A    between atoms: _76  and  _78
REMARK   32  A    between atoms: _78  and  _79
REMARK   33  A    between atoms: _78  and  _81
REMARK   34  A    between atoms: _81  and  _82
REMARK   35  A    between atoms: _84  and  _86
REMARK   36  A    between atoms: _86  and  _87
REMARK   37  A    between atoms: _86  and  _89
REMARK   38  A    between atoms: _89  and  _90
REMARK   39  A    between atoms: _92  and  _94
REMARK   40  A    between atoms: _94  and  _95
REMARK   41  A    between atoms: _94  and  _97
REMARK   42  A    between atoms: _97  and  _98
REMARK   43  A    between atoms: _101  and  _103
REMARK   44  A    between atoms: _103  and  _104
REMARK   45  A    between atoms: _103  and  _106
REMARK   46  A    between atoms: _106  and  _107
REMARK   47  A    between atoms: _117  and  _119
REMARK   48  A    between atoms: _119  and  _120
REMARK   49  A    between atoms: _119  and  _122
REMARK   50  A    between atoms: _122  and  _123
REMARK   51  A    between atoms: _126  and  _128
REMARK   52  A    between atoms: _128  and  _129
REMARK   53  A    between atoms: _128  and  _131
REMARK   54  A    between atoms: _131  and  _132
REMARK   55  A    between atoms: _132  and  _133
REMARK   56  A    between atoms: _133  and  _134
REMARK   57  A    between atoms: _143  and  _145
REMARK   58  A    between atoms: _145  and  _146
REMARK   59  A    between atoms: _145  and  _148
REMARK   60  A    between atoms: _148  and  _149
REMARK   61  A    between atoms: _154  and  _155
REMARK   62  A    between atoms: _157  and  _159
REMARK   63  A    between atoms: _159  and  _160
REMARK   64  A    between atoms: _162  and  _164
REMARK   65  A    between atoms: _164  and  _165
REMARK   66  A    between atoms: _164  and  _167
REMARK   67  A    between atoms: _167  and  _168
REMARK   68  A    between atoms: _171  and  _173
REMARK   69  A    between atoms: _173  and  _174
REMARK   70  A    between atoms: _176  and  _178
REMARK   71  A    between atoms: _178  and  _179
REMARK   72  A    between atoms: _178  and  _181
REMARK   73  A    between atoms: _181  and  _182
REMARK   74  A    between atoms: _184  and  _186
REMARK   75  A    between atoms: _186  and  _187
REMARK   76  A    between atoms: _186  and  _189
REMARK   77  A    between atoms: _189  and  _190
REMARK   78  A    between atoms: _193  and  _195
REMARK   79  A    between atoms: _195  and  _196
REMARK   80  A    between atoms: _195  and  _198
REMARK   81  A    between atoms: _198  and  _199
REMARK   82  A    between atoms: _201  and  _203
REMARK   83  A    between atoms: _203  and  _204
REMARK   84  A    between atoms: _203  and  _206
REMARK   85  A    between atoms: _209  and  _211
REMARK   86  A    between atoms: _211  and  _212
REMARK   87  A    between atoms: _211  and  _214
REMARK   88  A    between atoms: _214  and  _215
REMARK   89  A    between atoms: _218  and  _220
REMARK   90  A    between atoms: _220  and  _221
REMARK   91  A    between atoms: _220  and  _223
REMARK   92  A    between atoms: _223  and  _224
REMARK   93  A    between atoms: _224  and  _225
REMARK   94  A    between atoms: _230  and  _232
REMARK   95  A    between atoms: _232  and  _233
REMARK   96  A    between atoms: _235  and  _237
REMARK   97  A    between atoms: _237  and  _238
REMARK   98  A    between atoms: _237  and  _240
REMARK   99  A    between atoms: _240  and  _241
REMARK  100  A    between atoms: _244  and  _246
REMARK  101  A    between atoms: _246  and  _247
REMARK  102  A    between atoms: _246  and  _249
REMARK  103  A    between atoms: _249  and  _250
REMARK  104  A    between atoms: _253  and  _255
REMARK  105  A    between atoms: _255  and  _256
REMARK  106  A    between atoms: _255  and  _258
REMARK  107  A    between atoms: _258  and  _259
REMARK  108  A    between atoms: _262  and  _264
REMARK  109  A    between atoms: _264  and  _265
REMARK  110  A    between atoms: _264  and  _267
REMARK  111  A    between atoms: _267  and  _268
REMARK  112  A    between atoms: _273  and  _275
REMARK  113  A    between atoms: _275  and  _276
REMARK  114  A    between atoms: _275  and  _278
REMARK  115  A    between atoms: _278  and  _279
REMARK  116  A    between atoms: _279  and  _280
REMARK  117  A    between atoms: _283  and  _285
REMARK  118  A    between atoms: _285  and  _286
REMARK  119  A    between atoms: _289  and  _291
REMARK  120  A    between atoms: _291  and  _292
REMARK  121  A    between atoms: _291  and  _294
REMARK  122  A    between atoms: _294  and  _295
REMARK  123  A    between atoms: _295  and  _296
REMARK  124  A    between atoms: _301  and  _303
REMARK  125  A    between atoms: _303  and  _304
REMARK  126  A    between atoms: _307  and  _309
REMARK  127  A    between atoms: _309  and  _310
REMARK  128  A    between atoms: _309  and  _312
REMARK  129  A    between atoms: _312  and  _313
REMARK  130  A    between atoms: _316  and  _318
REMARK  131  A    between atoms: _318  and  _319
REMARK  132  A    between atoms: _318  and  _321
REMARK  133  A    between atoms: _321  and  _322
REMARK  134  A    between atoms: _325  and  _327
REMARK  135  A    between atoms: _327  and  _328
REMARK  136  A    between atoms: _327  and  _330
REMARK  137  A    between atoms: _330  and  _331
REMARK  138  A    between atoms: _334  and  _336
REMARK  139  A    between atoms: _336  and  _337
REMARK  140  A    between atoms: _336  and  _339
REMARK  141  A    between atoms: _339  and  _340
REMARK  142  A    between atoms: _343  and  _345
REMARK  143  A    between atoms: _345  and  _346
REMARK  144  A    between atoms: _345  and  _348
REMARK  145  A    between atoms: _348  and  _349
REMARK  146  A    between atoms: _351  and  _353
REMARK  147  A    between atoms: _353  and  _354
REMARK  148  A    between atoms: _356  and  _358
REMARK  149  A    between atoms: _358  and  _359
REMARK  150  A    between atoms: _358  and  _361
REMARK  151  A    between atoms: _361  and  _362
REMARK  152  A    between atoms: _365  and  _367
REMARK  153  A    between atoms: _367  and  _368
REMARK  154  A    between atoms: _367  and  _370
REMARK  155  A    between atoms: _370  and  _371
REMARK  156  A    between atoms: _374  and  _376
REMARK  157  A    between atoms: _376  and  _377
REMARK  158  A    between atoms: _376  and  _379
REMARK  159  A    between atoms: _379  and  _380
REMARK  160  A    between atoms: _383  and  _385
REMARK  161  A    between atoms: _385  and  _386
REMARK  162  A    between atoms: _385  and  _388
REMARK  163  A    between atoms: _388  and  _389
REMARK  164  A    between atoms: _392  and  _394
REMARK  165  A    between atoms: _394  and  _395
REMARK  166  A    between atoms: _394  and  _397
REMARK  167  A    between atoms: _397  and  _398
REMARK  168  A    between atoms: _403  and  _404
REMARK  169  A    between atoms: _406  and  _408
REMARK  170  A    between atoms: _408  and  _409
REMARK  171  A    between atoms: _408  and  _411
REMARK  172  A    between atoms: _411  and  _412
REMARK  173  A    between atoms: _412  and  _413
REMARK  174  A    between atoms: _418  and  _420
REMARK  175  A    between atoms: _420  and  _421
REMARK  176  A    between atoms: _420  and  _423
REMARK  177  A    between atoms: _423  and  _424
REMARK  178  A    between atoms: _427  and  _429
REMARK  179  A    between atoms: _429  and  _430
REMARK  180  A    between atoms: _429  and  _432
REMARK  181  A    between atoms: _432  and  _433
REMARK  182  A    between atoms: _438  and  _439
REMARK  183  A    between atoms: _441  and  _443
REMARK  184  A    between atoms: _443  and  _444
REMARK  185  A    between atoms: _443  and  _446
REMARK  186  A    between atoms: _446  and  _447
REMARK  187  A    between atoms: _447  and  _448
REMARK  188  A    between atoms: _453  and  _455
REMARK  189  A    between atoms: _455  and  _456
REMARK  190  A    between atoms: _455  and  _458
REMARK  191  A    between atoms: _458  and  _459
REMARK  192  A    between atoms: _464  and  _466
REMARK  193  A    between atoms: _466  and  _467
REMARK  194  A    between atoms: _466  and  _469
REMARK  195  A    between atoms: _469  and  _470
REMARK  196  A    between atoms: _473  and  _475
REMARK  197  A    between atoms: _475  and  _476
REMARK  198  A    between atoms: _475  and  _478
REMARK  199  A    between atoms: _478  and  _479
REMARK  200  A    between atoms: _489  and  _491
REMARK  201  A    between atoms: _491  and  _492
REMARK  202  A    between atoms: _491  and  _494
REMARK  203  A    between atoms: _494  and  _495
REMARK  204  A    between atoms: _495  and  _496
REMARK  205  A    between atoms: _501  and  _503
REMARK  206  A    between atoms: _503  and  _504
REMARK  207  A    between atoms: _503  and  _506
REMARK  208  A    between atoms: _506  and  _507
REMARK  209  A    between atoms: _509  and  _511
REMARK  210  A    between atoms: _511  and  _512
REMARK  211  A    between atoms: _511  and  _514
REMARK  212  A    between atoms: _514  and  _515
REMARK  213  A    between atoms: _518  and  _520
REMARK  214  A    between atoms: _520  and  _521
REMARK  215  A    between atoms: _520  and  _523
REMARK  216  A    between atoms: _523  and  _524
REMARK  217  A    between atoms: _527  and  _529
REMARK  218  A    between atoms: _529  and  _530
REMARK  219  A    between atoms: _529  and  _532
REMARK  220  A    between atoms: _532  and  _533
REMARK  221  A    between atoms: _536  and  _538
REMARK  222  A    between atoms: _538  and  _539
REMARK  223  A    between atoms: _538  and  _541
REMARK  224  A    between atoms: _541  and  _542
REMARK  225  A    between atoms: _545  and  _547
REMARK  226  A    between atoms: _547  and  _548
REMARK  227  A    between atoms: _550  and  _552
REMARK  228  A    between atoms: _552  and  _553
REMARK  229  A    between atoms: _552  and  _555
REMARK  230  A    between atoms: _555  and  _556
REMARK                            x       y       z     vdW  Elec       q    Type
REMARK                         _______ _______ _______ _____ _____    ______ ____
ROOT
ATOM      1  O   HOH     1      27.438  25.040  50.437  0.00  0.00    +0.000 OA
ENDROOT
TORSDOF 0
REMARK  Name = ../refined-set-2016/3fv3/3fv3_pocket.pdb
REMARK  230 active torsions:
REMARK  status: ('A' for Active; 'I' for Inactive)
REMARK    1  A    between atoms: _1  and  _3
REMARK    2  A    between atoms: _3  and  _4
REMARK    3  A    between atoms: _7  and  _8
REMARK    4  A    between atoms: _13  and  _15
REMARK    5  A    between atoms: _15  and  _16
REMARK    6  A    between atoms: _15  and  _18
REMARK    7  A    between atoms: _18  and  _19
REMARK    8  A    between atoms: _21  and  _23
REMARK    9  A    between atoms: _23  and  _24
REMARK   10  A    between atoms: _23  and  _26
REMARK   11  A    between atoms: _26  and  _27
REMARK   12  A    between atoms: _32  and  _33
REMARK   13  A    between atoms: _35  and  _37
REMARK   14  A    between atoms: _37  and  _38
REMARK   15  A    between atoms: _37  and  _40
REMARK   16  A    between atoms: _40  and  _41
REMARK   17  A    between atoms: _44  and  _46
REMARK   18  A    between atoms: _46  and  _47
REMARK   19  A    between atoms: _46  and  _49
REMARK   20  A    between atoms: _49  and  _50
REMARK   21  A    between atoms: _53  and  _55
REMARK   22  A    between atoms: _55  and  _56
REMARK   23  A    between atoms: _55  and  _58
REMARK   24  A    between atoms: _58  and  _59
REMARK   25  A    between atoms: _62  and  _64
REMARK   26  A    between atoms: _64  and  _65
REMARK   27  A    between atoms: _64  and  _67
REMARK   28  A    between atoms: _67  and  _68
REMARK   29  A    between atoms: _71  and  _73
REMARK   30  A    between atoms: _73  and  _74
REMARK   31  A    between atoms: _76  and  _78
REMARK   32  A    between atoms: _78  and  _79
REMARK   33  A    between atoms: _78  and  _81
REMARK   34  A    between atoms: _81  and  _82
REMARK   35  A    between atoms: _84  and  _86
REMARK   36  A    between atoms: _86  and  _87
REMARK   37  A    between atoms: _86  and  _89
REMARK   38  A    between atoms: _89  and  _90
REMARK   39  A    between atoms: _92  and  _94
REMARK   40  A    between atoms: _94  and  _95
REMARK   41  A    between atoms: _94  and  _97
REMARK   42  A    between atoms: _97  and  _98
REMARK   43  A    between atoms: _101  and  _103
REMARK   44  A    between atoms: _103  and  _104
REMARK   45  A    between atoms: _103  and  _106
REMARK   46  A    between atoms: _106  and  _107
REMARK   47  A    between atoms: _117  and  _119
REMARK   48  A    between atoms: _119  and  _120
REMARK   49  A    between atoms: _119  and  _122
REMARK   50  A    between atoms: _122  and  _123
REMARK   51  A    between atoms: _126  and  _128
REMARK   52  A    between atoms: _128  and  _129
REMARK   53  A    between atoms: _128  and  _131
REMARK   54  A    between atoms: _131  and  _132
REMARK   55  A    between atoms: _132  and  _133
REMARK   56  A    between atoms: _133  and  _134
REMARK   57  A    between atoms: _143  and  _145
REMARK   58  A    between atoms: _145  and  _146
REMARK   59  A    between atoms: _145  and  _148
REMARK   60  A    between atoms: _148  and  _149
REMARK   61  A    between atoms: _154  and  _155
REMARK   62  A    between atoms: _157  and  _159
REMARK   63  A    between atoms: _159  and  _160
REMARK   64  A    between atoms: _162  and  _164
REMARK   65  A    between atoms: _164  and  _165
REMARK   66  A    between atoms: _164  and  _167
REMARK   67  A    between atoms: _167  and  _168
REMARK   68  A    between atoms: _171  and  _173
REMARK   69  A    between atoms: _173  and  _174
REMARK   70  A    between atoms: _176  and  _178
REMARK   71  A    between atoms: _178  and  _179
REMARK   72  A    between atoms: _178  and  _181
REMARK   73  A    between atoms: _181  and  _182
REMARK   74  A    between atoms: _184  and  _186
REMARK   75  A    between atoms: _186  and  _187
REMARK   76  A    between atoms: _186  and  _189
REMARK   77  A    between atoms: _189  and  _190
REMARK   78  A    between atoms: _193  and  _195
REMARK   79  A    between atoms: _195  and  _196
REMARK   80  A    between atoms: _195  and  _198
REMARK   81  A    between atoms: _198  and  _199
REMARK   82  A    between atoms: _201  and  _203
REMARK   83  A    between atoms: _203  and  _204
REMARK   84  A    between atoms: _203  and  _206
REMARK   85  A    between atoms: _209  and  _211
REMARK   86  A    between atoms: _211  and  _212
REMARK   87  A    between atoms: _211  and  _214
REMARK   88  A    between atoms: _214  and  _215
REMARK   89  A    between atoms: _218  and  _220
REMARK   90  A    between atoms: _220  and  _221
REMARK   91  A    between atoms: _220  and  _223
REMARK   92  A    between atoms: _223  and  _224
REMARK   93  A    between atoms: _224  and  _225
REMARK   94  A    between atoms: _230  and  _232
REMARK   95  A    between atoms: _232  and  _233
REMARK   96  A    between atoms: _235  and  _237
REMARK   97  A    between atoms: _237  and  _238
REMARK   98  A    between atoms: _237  and  _240
REMARK   99  A    between atoms: _240  and  _241
REMARK  100  A    between atoms: _244  and  _246
REMARK  101  A    between atoms: _246  and  _247
REMARK  102  A    between atoms: _246  and  _249
REMARK  103  A    between atoms: _249  and  _250
REMARK  104  A    between atoms: _253  and  _255
REMARK  105  A    between atoms: _255  and  _256
REMARK  106  A    between atoms: _255  and  _258
REMARK  107  A    between atoms: _258  and  _259
REMARK  108  A    between atoms: _262  and  _264
REMARK  109  A    between atoms: _264  and  _265
REMARK  110  A    between atoms: _264  and  _267
REMARK  111  A    between atoms: _267  and  _268
REMARK  112  A    between atoms: _273  and  _275
REMARK  113  A    between atoms: _275  and  _276
REMARK  114  A    between atoms: _275  and  _278
REMARK  115  A    between atoms: _278  and  _279
REMARK  116  A    between atoms: _279  and  _280
REMARK  117  A    between atoms: _283  and  _285
REMARK  118  A    between atoms: _285  and  _286
REMARK  119  A    between atoms: _289  and  _291
REMARK  120  A    between atoms: _291  and  _292
REMARK  121  A    between atoms: _291  and  _294
REMARK  122  A    between atoms: _294  and  _295
REMARK  123  A    between atoms: _295  and  _296
REMARK  124  A    between atoms: _301  and  _303
REMARK  125  A    between atoms: _303  and  _304
REMARK  126  A    between atoms: _307  and  _309
REMARK  127  A    between atoms: _309  and  _310
REMARK  128  A    between atoms: _309  and  _312
REMARK  129  A    between atoms: _312  and  _313
REMARK  130  A    between atoms: _316  and  _318
REMARK  131  A    between atoms: _318  and  _319
REMARK  132  A    between atoms: _318  and  _321
REMARK  133  A    between atoms: _321  and  _322
REMARK  134  A    between atoms: _325  and  _327
REMARK  135  A    between atoms: _327  and  _328
REMARK  136  A    between atoms: _327  and  _330
REMARK  137  A    between atoms: _330  and  _331
REMARK  138  A    between atoms: _334  and  _336
REMARK  139  A    between atoms: _336  and  _337
REMARK  140  A    between atoms: _336  and  _339
REMARK  141  A    between atoms: _339  and  _340
REMARK  142  A    between atoms: _343  and  _345
REMARK  143  A    between atoms: _345  and  _346
REMARK  144  A    between atoms: _345  and  _348
REMARK  145  A    between atoms: _348  and  _349
REMARK  146  A    between atoms: _351  and  _353
REMARK  147  A    between atoms: _353  and  _354
REMARK  148  A    between atoms: _356  and  _358
REMARK  149  A    between atoms: _358  and  _359
REMARK  150  A    between atoms: _358  and  _361
REMARK  151  A    between atoms: _361  and  _362
REMARK  152  A    between atoms: _365  and  _367
REMARK  153  A    between atoms: _367  and  _368
REMARK  154  A    between atoms: _367  and  _370
REMARK  155  A    between atoms: _370  and  _371
REMARK  156  A    between atoms: _374  and  _376
REMARK  157  A    between atoms: _376  and  _377
REMARK  158  A    between atoms: _376  and  _379
REMARK  159  A    between atoms: _379  and  _380
REMARK  160  A    between atoms: _383  and  _385
REMARK  161  A    between atoms: _385  and  _386
REMARK  162  A    between atoms: _385  and  _388
REMARK  163  A    between atoms: _388  and  _389
REMARK  164  A    between atoms: _392  and  _394
REMARK  165  A    between atoms: _394  and  _395
REMARK  166  A    between atoms: _394  and  _397
REMARK  167  A    between atoms: _397  and  _398
REMARK  168  A    between atoms: _403  and  _404
REMARK  169  A    between atoms: _406  and  _408
REMARK  170  A    between atoms: _408  and  _409
REMARK  171  A    between atoms: _408  and  _411
REMARK  172  A    between atoms: _411  and  _412
REMARK  173  A    between atoms: _412  and  _413
REMARK  174  A    between atoms: _418  and  _420
REMARK  175  A    between atoms: _420  and  _421
REMARK  176  A    between atoms: _420  and  _423
REMARK  177  A    between atoms: _423  and  _424
REMARK  178  A    between atoms: _427  and  _429
REMARK  179  A    between atoms: _429  and  _430
REMARK  180  A    between atoms: _429  and  _432
REMARK  181  A    between atoms: _432  and  _433
REMARK  182  A    between atoms: _438  and  _439
REMARK  183  A    between atoms: _441  and  _443
REMARK  184  A    between atoms: _443  and  _444
REMARK  185  A    between atoms: _443  and  _446
REMARK  186  A    between atoms: _446  and  _447
REMARK  187  A    between atoms: _447  and  _448
REMARK  188  A    between atoms: _453  and  _455
REMARK  189  A    between atoms: _455  and  _456
REMARK  190  A    between atoms: _455  and  _458
REMARK  191  A    between atoms: _458  and  _459
REMARK  192  A    between atoms: _464  and  _466
REMARK  193  A    between atoms: _466  and  _467
REMARK  194  A    between atoms: _466  and  _469
REMARK  195  A    between atoms: _469  and  _470
REMARK  196  A    between atoms: _473  and  _475
REMARK  197  A    between atoms: _475  and  _476
REMARK  198  A    between atoms: _475  and  _478
REMARK  199  A    between atoms: _478  and  _479
REMARK  200  A    between atoms: _489  and  _491
REMARK  201  A    between atoms: _491  and  _492
REMARK  202  A    between atoms: _491  and  _494
REMARK  203  A    between atoms: _494  and  _495
REMARK  204  A    between atoms: _495  and  _496
REMARK  205  A    between atoms: _501  and  _503
REMARK  206  A    between atoms: _503  and  _504
REMARK  207  A    between atoms: _503  and  _506
REMARK  208  A    between atoms: _506  and  _507
REMARK  209  A    between atoms: _509  and  _511
REMARK  210  A    between atoms: _511  and  _512
REMARK  211  A    between atoms: _511  and  _514
REMARK  212  A    between atoms: _514  and  _515
REMARK  213  A    between atoms: _518  and  _520
REMARK  214  A    between atoms: _520  and  _521
REMARK  215  A    between atoms: _520  and  _523
REMARK  216  A    between atoms: _523  and  _524
REMARK  217  A    between atoms: _527  and  _529
REMARK  218  A    between atoms: _529  and  _530
REMARK  219  A    between atoms: _529  and  _532
REMARK  220  A    between atoms: _532  and  _533
REMARK  221  A    between atoms: _536  and  _538
REMARK  222  A    between atoms: _538  and  _539
REMARK  223  A    between atoms: _538  and  _541
REMARK  224  A    between atoms: _541  and  _542
REMARK  225  A    between atoms: _545  and  _547
REMARK  226  A    between atoms: _547  and  _548
REMARK  227  A    between atoms: _550  and  _552
REMARK  228  A    between atoms: _552  and  _553
REMARK  229  A    between atoms: _552  and  _555
REMARK  230  A    between atoms: _555  and  _556
REMARK                            x       y       z     vdW  Elec       q    Type
REMARK                         _______ _______ _______ _____ _____    ______ ____
ROOT
ATOM      1  O   HOH     1      24.264  23.558  66.722  0.00  0.00    +0.000 OA
ENDROOT
TORSDOF 0
REMARK  Name = ../refined-set-2016/3fv3/3fv3_pocket.pdb
REMARK  230 active torsions:
REMARK  status: ('A' for Active; 'I' for Inactive)
REMARK    1  A    between atoms: _1  and  _3
REMARK    2  A    between atoms: _3  and  _4
REMARK    3  A    between atoms: _7  and  _8
REMARK    4  A    between atoms: _13  and  _15
REMARK    5  A    between atoms: _15  and  _16
REMARK    6  A    between atoms: _15  and  _18
REMARK    7  A    between atoms: _18  and  _19
REMARK    8  A    between atoms: _21  and  _23
REMARK    9  A    between atoms: _23  and  _24
REMARK   10  A    between atoms: _23  and  _26
REMARK   11  A    between atoms: _26  and  _27
REMARK   12  A    between atoms: _32  and  _33
REMARK   13  A    between atoms: _35  and  _37
REMARK   14  A    between atoms: _37  and  _38
REMARK   15  A    between atoms: _37  and  _40
REMARK   16  A    between atoms: _40  and  _41
REMARK   17  A    between atoms: _44  and  _46
REMARK   18  A    between atoms: _46  and  _47
REMARK   19  A    between atoms: _46  and  _49
REMARK   20  A    between atoms: _49  and  _50
REMARK   21  A    between atoms: _53  and  _55
REMARK   22  A    between atoms: _55  and  _56
REMARK   23  A    between atoms: _55  and  _58
REMARK   24  A    between atoms: _58  and  _59
REMARK   25  A    between atoms: _62  and  _64
REMARK   26  A    between atoms: _64  and  _65
REMARK   27  A    between atoms: _64  and  _67
REMARK   28  A    between atoms: _67  and  _68
REMARK   29  A    between atoms: _71  and  _73
REMARK   30  A    between atoms: _73  and  _74
REMARK   31  A    between atoms: _76  and  _78
REMARK   32  A    between atoms: _78  and  _79
REMARK   33  A    between atoms: _78  and  _81
REMARK   34  A    between atoms: _81  and  _82
REMARK   35  A    between atoms: _84  and  _86
REMARK   36  A    between atoms: _86  and  _87
REMARK   37  A    between atoms: _86  and  _89
REMARK   38  A    between atoms: _89  and  _90
REMARK   39  A    between atoms: _92  and  _94
REMARK   40  A    between atoms: _94  and  _95
REMARK   41  A    between atoms: _94  and  _97
REMARK   42  A    between atoms: _97  and  _98
REMARK   43  A    between atoms: _101  and  _103
REMARK   44  A    between atoms: _103  and  _104
REMARK   45  A    between atoms: _103  and  _106
REMARK   46  A    between atoms: _106  and  _107
REMARK   47  A    between atoms: _117  and  _119
REMARK   48  A    between atoms: _119  and  _120
REMARK   49  A    between atoms: _119  and  _122
REMARK   50  A    between atoms: _122  and  _123
REMARK   51  A    between atoms: _126  and  _128
REMARK   52  A    between atoms: _128  and  _129
REMARK   53  A    between atoms: _128  and  _131
REMARK   54  A    between atoms: _131  and  _132
REMARK   55  A    between atoms: _132  and  _133
REMARK   56  A    between atoms: _133  and  _134
REMARK   57  A    between atoms: _143  and  _145
REMARK   58  A    between atoms: _145  and  _146
REMARK   59  A    between atoms: _145  and  _148
REMARK   60  A    between atoms: _148  and  _149
REMARK   61  A    between atoms: _154  and  _155
REMARK   62  A    between atoms: _157  and  _159
REMARK   63  A    between atoms: _159  and  _160
REMARK   64  A    between atoms: _162  and  _164
REMARK   65  A    between atoms: _164  and  _165
REMARK   66  A    between atoms: _164  and  _167
REMARK   67  A    between atoms: _167  and  _168
REMARK   68  A    between atoms: _171  and  _173
REMARK   69  A    between atoms: _173  and  _174
REMARK   70  A    between atoms: _176  and  _178
REMARK   71  A    between atoms: _178  and  _179
REMARK   72  A    between atoms: _178  and  _181
REMARK   73  A    between atoms: _181  and  _182
REMARK   74  A    between atoms: _184  and  _186
REMARK   75  A    between atoms: _186  and  _187
REMARK   76  A    between atoms: _186  and  _189
REMARK   77  A    between atoms: _189  and  _190
REMARK   78  A    between atoms: _193  and  _195
REMARK   79  A    between atoms: _195  and  _196
REMARK   80  A    between atoms: _195  and  _198
REMARK   81  A    between atoms: _198  and  _199
REMARK   82  A    between atoms: _201  and  _203
REMARK   83  A    between atoms: _203  and  _204
REMARK   84  A    between atoms: _203  and  _206
REMARK   85  A    between atoms: _209  and  _211
REMARK   86  A    between atoms: _211  and  _212
REMARK   87  A    between atoms: _211  and  _214
REMARK   88  A    between atoms: _214  and  _215
REMARK   89  A    between atoms: _218  and  _220
REMARK   90  A    between atoms: _220  and  _221
REMARK   91  A    between atoms: _220  and  _223
REMARK   92  A    between atoms: _223  and  _224
REMARK   93  A    between atoms: _224  and  _225
REMARK   94  A    between atoms: _230  and  _232
REMARK   95  A    between atoms: _232  and  _233
REMARK   96  A    between atoms: _235  and  _237
REMARK   97  A    between atoms: _237  and  _238
REMARK   98  A    between atoms: _237  and  _240
REMARK   99  A    between atoms: _240  and  _241
REMARK  100  A    between atoms: _244  and  _246
REMARK  101  A    between atoms: _246  and  _247
REMARK  102  A    between atoms: _246  and  _249
REMARK  103  A    between atoms: _249  and  _250
REMARK  104  A    between atoms: _253  and  _255
REMARK  105  A    between atoms: _255  and  _256
REMARK  106  A    between atoms: _255  and  _258
REMARK  107  A    between atoms: _258  and  _259
REMARK  108  A    between atoms: _262  and  _264
REMARK  109  A    between atoms: _264  and  _265
REMARK  110  A    between atoms: _264  and  _267
REMARK  111  A    between atoms: _267  and  _268
REMARK  112  A    between atoms: _273  and  _275
REMARK  113  A    between atoms: _275  and  _276
REMARK  114  A    between atoms: _275  and  _278
REMARK  115  A    between atoms: _278  and  _279
REMARK  116  A    between atoms: _279  and  _280
REMARK  117  A    between atoms: _283  and  _285
REMARK  118  A    between atoms: _285  and  _286
REMARK  119  A    between atoms: _289  and  _291
REMARK  120  A    between atoms: _291  and  _292
REMARK  121  A    between atoms: _291  and  _294
REMARK  122  A    between atoms: _294  and  _295
REMARK  123  A    between atoms: _295  and  _296
REMARK  124  A    between atoms: _301  and  _303
REMARK  125  A    between atoms: _303  and  _304
REMARK  126  A    between atoms: _307  and  _309
REMARK  127  A    between atoms: _309  and  _310
REMARK  128  A    between atoms: _309  and  _312
REMARK  129  A    between atoms: _312  and  _313
REMARK  130  A    between atoms: _316  and  _318
REMARK  131  A    between atoms: _318  and  _319
REMARK  132  A    between atoms: _318  and  _321
REMARK  133  A    between atoms: _321  and  _322
REMARK  134  A    between atoms: _325  and  _327
REMARK  135  A    between atoms: _327  and  _328
REMARK  136  A    between atoms: _327  and  _330
REMARK  137  A    between atoms: _330  and  _331
REMARK  138  A    between atoms: _334  and  _336
REMARK  139  A    between atoms: _336  and  _337
REMARK  140  A    between atoms: _336  and  _339
REMARK  141  A    between atoms: _339  and  _340
REMARK  142  A    between atoms: _343  and  _345
REMARK  143  A    between atoms: _345  and  _346
REMARK  144  A    between atoms: _345  and  _348
REMARK  145  A    between atoms: _348  and  _349
REMARK  146  A    between atoms: _351  and  _353
REMARK  147  A    between atoms: _353  and  _354
REMARK  148  A    between atoms: _356  and  _358
REMARK  149  A    between atoms: _358  and  _359
REMARK  150  A    between atoms: _358  and  _361
REMARK  151  A    between atoms: _361  and  _362
REMARK  152  A    between atoms: _365  and  _367
REMARK  153  A    between atoms: _367  and  _368
REMARK  154  A    between atoms: _367  and  _370
REMARK  155  A    between atoms: _370  and  _371
REMARK  156  A    between atoms: _374  and  _376
REMARK  157  A    between atoms: _376  and  _377
REMARK  158  A    between atoms: _376  and  _379
REMARK  159  A    between atoms: _379  and  _380
REMARK  160  A    between atoms: _383  and  _385
REMARK  161  A    between atoms: _385  and  _386
REMARK  162  A    between atoms: _385  and  _388
REMARK  163  A    between atoms: _388  and  _389
REMARK  164  A    between atoms: _392  and  _394
REMARK  165  A    between atoms: _394  and  _395
REMARK  166  A    between atoms: _394  and  _397
REMARK  167  A    between atoms: _397  and  _398
REMARK  168  A    between atoms: _403  and  _404
REMARK  169  A    between atoms: _406  and  _408
REMARK  170  A    between atoms: _408  and  _409
REMARK  171  A    between atoms: _408  and  _411
REMARK  172  A    between atoms: _411  and  _412
REMARK  173  A    between atoms: _412  and  _413
REMARK  174  A    between atoms: _418  and  _420
REMARK  175  A    between atoms: _420  and  _421
REMARK  176  A    between atoms: _420  and  _423
REMARK  177  A    between atoms: _423  and  _424
REMARK  178  A    between atoms: _427  and  _429
REMARK  179  A    between atoms: _429  and  _430
REMARK  180  A    between atoms: _429  and  _432
REMARK  181  A    between atoms: _432  and  _433
REMARK  182  A    between atoms: _438  and  _439
REMARK  183  A    between atoms: _441  and  _443
REMARK  184  A    between atoms: _443  and  _444
REMARK  185  A    between atoms: _443  and  _446
REMARK  186  A    between atoms: _446  and  _447
REMARK  187  A    between atoms: _447  and  _448
REMARK  188  A    between atoms: _453  and  _455
REMARK  189  A    between atoms: _455  and  _456
REMARK  190  A    between atoms: _455  and  _458
REMARK  191  A    between atoms: _458  and  _459
REMARK  192  A    between atoms: _464  and  _466
REMARK  193  A    between atoms: _466  and  _467
REMARK  194  A    between atoms: _466  and  _469
REMARK  195  A    between atoms: _469  and  _470
REMARK  196  A    between atoms: _473  and  _475
REMARK  197  A    between atoms: _475  and  _476
REMARK  198  A    between atoms: _475  and  _478
REMARK  199  A    between atoms: _478  and  _479
REMARK  200  A    between atoms: _489  and  _491
REMARK  201  A    between atoms: _491  and  _492
REMARK  202  A    between atoms: _491  and  _494
REMARK  203  A    between atoms: _494  and  _495
REMARK  204  A    between atoms: _495  and  _496
REMARK  205  A    between atoms: _501  and  _503
REMARK  206  A    between atoms: _503  and  _504
REMARK  207  A    between atoms: _503  and  _506
REMARK  208  A    between atoms: _506  and  _507
REMARK  209  A    between atoms: _509  and  _511
REMARK  210  A    between atoms: _511  and  _512
REMARK  211  A    between atoms: _511  and  _514
REMARK  212  A    between atoms: _514  and  _515
REMARK  213  A    between atoms: _518  and  _520
REMARK  214  A    between atoms: _520  and  _521
REMARK  215  A    between atoms: _520  and  _523
REMARK  216  A    between atoms: _523  and  _524
REMARK  217  A    between atoms: _527  and  _529
REMARK  218  A    between atoms: _529  and  _530
REMARK  219  A    between atoms: _529  and  _532
REMARK  220  A    between atoms: _532  and  _533
REMARK  221  A    between atoms: _536  and  _538
REMARK  222  A    between atoms: _538  and  _539
REMARK  223  A    between atoms: _538  and  _541
REMARK  224  A    between atoms: _541  and  _542
REMARK  225  A    between atoms: _545  and  _547
REMARK  226  A    between atoms: _547  and  _548
REMARK  227  A    between atoms: _550  and  _552
REMARK  228  A    between atoms: _552  and  _553
REMARK  229  A    between atoms: _552  and  _555
REMARK  230  A    between atoms: _555  and  _556
REMARK                            x       y       z     vdW  Elec       q    Type
REMARK                         _______ _______ _______ _____ _____    ______ ____
ROOT
ATOM      1  O   HOH     1      21.594  15.215  63.077  0.00  0.00    +0.000 OA
ENDROOT
TORSDOF 0
REMARK  Name = ../refined-set-2016/3fv3/3fv3_pocket.pdb
REMARK  230 active torsions:
REMARK  status: ('A' for Active; 'I' for Inactive)
REMARK    1  A    between atoms: _1  and  _3
REMARK    2  A    between atoms: _3  and  _4
REMARK    3  A    between atoms: _7  and  _8
REMARK    4  A    between atoms: _13  and  _15
REMARK    5  A    between atoms: _15  and  _16
REMARK    6  A    between atoms: _15  and  _18
REMARK    7  A    between atoms: _18  and  _19
REMARK    8  A    between atoms: _21  and  _23
REMARK    9  A    between atoms: _23  and  _24
REMARK   10  A    between atoms: _23  and  _26
REMARK   11  A    between atoms: _26  and  _27
REMARK   12  A    between atoms: _32  and  _33
REMARK   13  A    between atoms: _35  and  _37
REMARK   14  A    between atoms: _37  and  _38
REMARK   15  A    between atoms: _37  and  _40
REMARK   16  A    between atoms: _40  and  _41
REMARK   17  A    between atoms: _44  and  _46
REMARK   18  A    between atoms: _46  and  _47
REMARK   19  A    between atoms: _46  and  _49
REMARK   20  A    between atoms: _49  and  _50
REMARK   21  A    between atoms: _53  and  _55
REMARK   22  A    between atoms: _55  and  _56
REMARK   23  A    between atoms: _55  and  _58
REMARK   24  A    between atoms: _58  and  _59
REMARK   25  A    between atoms: _62  and  _64
REMARK   26  A    between atoms: _64  and  _65
REMARK   27  A    between atoms: _64  and  _67
REMARK   28  A    between atoms: _67  and  _68
REMARK   29  A    between atoms: _71  and  _73
REMARK   30  A    between atoms: _73  and  _74
REMARK   31  A    between atoms: _76  and  _78
REMARK   32  A    between atoms: _78  and  _79
REMARK   33  A    between atoms: _78  and  _81
REMARK   34  A    between atoms: _81  and  _82
REMARK   35  A    between atoms: _84  and  _86
REMARK   36  A    between atoms: _86  and  _87
REMARK   37  A    between atoms: _86  and  _89
REMARK   38  A    between atoms: _89  and  _90
REMARK   39  A    between atoms: _92  and  _94
REMARK   40  A    between atoms: _94  and  _95
REMARK   41  A    between atoms: _94  and  _97
REMARK   42  A    between atoms: _97  and  _98
REMARK   43  A    between atoms: _101  and  _103
REMARK   44  A    between atoms: _103  and  _104
REMARK   45  A    between atoms: _103  and  _106
REMARK   46  A    between atoms: _106  and  _107
REMARK   47  A    between atoms: _117  and  _119
REMARK   48  A    between atoms: _119  and  _120
REMARK   49  A    between atoms: _119  and  _122
REMARK   50  A    between atoms: _122  and  _123
REMARK   51  A    between atoms: _126  and  _128
REMARK   52  A    between atoms: _128  and  _129
REMARK   53  A    between atoms: _128  and  _131
REMARK   54  A    between atoms: _131  and  _132
REMARK   55  A    between atoms: _132  and  _133
REMARK   56  A    between atoms: _133  and  _134
REMARK   57  A    between atoms: _143  and  _145
REMARK   58  A    between atoms: _145  and  _146
REMARK   59  A    between atoms: _145  and  _148
REMARK   60  A    between atoms: _148  and  _149
REMARK   61  A    between atoms: _154  and  _155
REMARK   62  A    between atoms: _157  and  _159
REMARK   63  A    between atoms: _159  and  _160
REMARK   64  A    between atoms: _162  and  _164
REMARK   65  A    between atoms: _164  and  _165
REMARK   66  A    between atoms: _164  and  _167
REMARK   67  A    between atoms: _167  and  _168
REMARK   68  A    between atoms: _171  and  _173
REMARK   69  A    between atoms: _173  and  _174
REMARK   70  A    between atoms: _176  and  _178
REMARK   71  A    between atoms: _178  and  _179
REMARK   72  A    between atoms: _178  and  _181
REMARK   73  A    between atoms: _181  and  _182
REMARK   74  A    between atoms: _184  and  _186
REMARK   75  A    between atoms: _186  and  _187
REMARK   76  A    between atoms: _186  and  _189
REMARK   77  A    between atoms: _189  and  _190
REMARK   78  A    between atoms: _193  and  _195
REMARK   79  A    between atoms: _195  and  _196
REMARK   80  A    between atoms: _195  and  _198
REMARK   81  A    between atoms: _198  and  _199
REMARK   82  A    between atoms: _201  and  _203
REMARK   83  A    between atoms: _203  and  _204
REMARK   84  A    between atoms: _203  and  _206
REMARK   85  A    between atoms: _209  and  _211
REMARK   86  A    between atoms: _211  and  _212
REMARK   87  A    between atoms: _211  and  _214
REMARK   88  A    between atoms: _214  and  _215
REMARK   89  A    between atoms: _218  and  _220
REMARK   90  A    between atoms: _220  and  _221
REMARK   91  A    between atoms: _220  and  _223
REMARK   92  A    between atoms: _223  and  _224
REMARK   93  A    between atoms: _224  and  _225
REMARK   94  A    between atoms: _230  and  _232
REMARK   95  A    between atoms: _232  and  _233
REMARK   96  A    between atoms: _235  and  _237
REMARK   97  A    between atoms: _237  and  _238
REMARK   98  A    between atoms: _237  and  _240
REMARK   99  A    between atoms: _240  and  _241
REMARK  100  A    between atoms: _244  and  _246
REMARK  101  A    between atoms: _246  and  _247
REMARK  102  A    between atoms: _246  and  _249
REMARK  103  A    between atoms: _249  and  _250
REMARK  104  A    between atoms: _253  and  _255
REMARK  105  A    between atoms: _255  and  _256
REMARK  106  A    between atoms: _255  and  _258
REMARK  107  A    between atoms: _258  and  _259
REMARK  108  A    between atoms: _262  and  _264
REMARK  109  A    between atoms: _264  and  _265
REMARK  110  A    between atoms: _264  and  _267
REMARK  111  A    between atoms: _267  and  _268
REMARK  112  A    between atoms: _273  and  _275
REMARK  113  A    between atoms: _275  and  _276
REMARK  114  A    between atoms: _275  and  _278
REMARK  115  A    between atoms: _278  and  _279
REMARK  116  A    between atoms: _279  and  _280
REMARK  117  A    between atoms: _283  and  _285
REMARK  118  A    between atoms: _285  and  _286
REMARK  119  A    between atoms: _289  and  _291
REMARK  120  A    between atoms: _291  and  _292
REMARK  121  A    between atoms: _291  and  _294
REMARK  122  A    between atoms: _294  and  _295
REMARK  123  A    between atoms: _295  and  _296
REMARK  124  A    between atoms: _301  and  _303
REMARK  125  A    between atoms: _303  and  _304
REMARK  126  A    between atoms: _307  and  _309
REMARK  127  A    between atoms: _309  and  _310
REMARK  128  A    between atoms: _309  and  _312
REMARK  129  A    between atoms: _312  and  _313
REMARK  130  A    between atoms: _316  and  _318
REMARK  131  A    between atoms: _318  and  _319
REMARK  132  A    between atoms: _318  and  _321
REMARK  133  A    between atoms: _321  and  _322
REMARK  134  A    between atoms: _325  and  _327
REMARK  135  A    between atoms: _327  and  _328
REMARK  136  A    between atoms: _327  and  _330
REMARK  137  A    between atoms: _330  and  _331
REMARK  138  A    between atoms: _334  and  _336
REMARK  139  A    between atoms: _336  and  _337
REMARK  140  A    between atoms: _336  and  _339
REMARK  141  A    between atoms: _339  and  _340
REMARK  142  A    between atoms: _343  and  _345
REMARK  143  A    between atoms: _345  and  _346
REMARK  144  A    between atoms: _345  and  _348
REMARK  145  A    between atoms: _348  and  _349
REMARK  146  A    between atoms: _351  and  _353
REMARK  147  A    between atoms: _353  and  _354
REMARK  148  A    between atoms: _356  and  _358
REMARK  149  A    between atoms: _358  and  _359
REMARK  150  A    between atoms: _358  and  _361
REMARK  151  A    between atoms: _361  and  _362
REMARK  152  A    between atoms: _365  and  _367
REMARK  153  A    between atoms: _367  and  _368
REMARK  154  A    between atoms: _367  and  _370
REMARK  155  A    between atoms: _370  and  _371
REMARK  156  A    between atoms: _374  and  _376
REMARK  157  A    between atoms: _376  and  _377
REMARK  158  A    between atoms: _376  and  _379
REMARK  159  A    between atoms: _379  and  _380
REMARK  160  A    between atoms: _383  and  _385
REMARK  161  A    between atoms: _385  and  _386
REMARK  162  A    between atoms: _385  and  _388
REMARK  163  A    between atoms: _388  and  _389
REMARK  164  A    between atoms: _392  and  _394
REMARK  165  A    between atoms: _394  and  _395
REMARK  166  A    between atoms: _394  and  _397
REMARK  167  A    between atoms: _397  and  _398
REMARK  168  A    between atoms: _403  and  _404
REMARK  169  A    between atoms: _406  and  _408
REMARK  170  A    between atoms: _408  and  _409
REMARK  171  A    between atoms: _408  and  _411
REMARK  172  A    between atoms: _411  and  _412
REMARK  173  A    between atoms: _412  and  _413
REMARK  174  A    between atoms: _418  and  _420
REMARK  175  A    between atoms: _420  and  _421
REMARK  176  A    between atoms: _420  and  _423
REMARK  177  A    between atoms: _423  and  _424
REMARK  178  A    between atoms: _427  and  _429
REMARK  179  A    between atoms: _429  and  _430
REMARK  180  A    between atoms: _429  and  _432
REMARK  181  A    between atoms: _432  and  _433
REMARK  182  A    between atoms: _438  and  _439
REMARK  183  A    between atoms: _441  and  _443
REMARK  184  A    between atoms: _443  and  _444
REMARK  185  A    between atoms: _443  and  _446
REMARK  186  A    between atoms: _446  and  _447
REMARK  187  A    between atoms: _447  and  _448
REMARK  188  A    between atoms: _453  and  _455
REMARK  189  A    between atoms: _455  and  _456
REMARK  190  A    between atoms: _455  and  _458
REMARK  191  A    between atoms: _458  and  _459
REMARK  192  A    between atoms: _464  and  _466
REMARK  193  A    between atoms: _466  and  _467
REMARK  194  A    between atoms: _466  and  _469
REMARK  195  A    between atoms: _469  and  _470
REMARK  196  A    between atoms: _473  and  _475
REMARK  197  A    between atoms: _475  and  _476
REMARK  198  A    between atoms: _475  and  _478
REMARK  199  A    between atoms: _478  and  _479
REMARK  200  A    between atoms: _489  and  _491
REMARK  201  A    between atoms: _491  and  _492
REMARK  202  A    between atoms: _491  and  _494
REMARK  203  A    between atoms: _494  and  _495
REMARK  204  A    between atoms: _495  and  _496
REMARK  205  A    between atoms: _501  and  _503
REMARK  206  A    between atoms: _503  and  _504
REMARK  207  A    between atoms: _503  and  _506
REMARK  208  A    between atoms: _506  and  _507
REMARK  209  A    between atoms: _509  and  _511
REMARK  210  A    between atoms: _511  and  _512
REMARK  211  A    between atoms: _511  and  _514
REMARK  212  A    between atoms: _514  and  _515
REMARK  213  A    between atoms: _518  and  _520
REMARK  214  A    between atoms: _520  and  _521
REMARK  215  A    between atoms: _520  and  _523
REMARK  216  A    between atoms: _523  and  _524
REMARK  217  A    between atoms: _527  and  _529
REMARK  218  A    between atoms: _529  and  _530
REMARK  219  A    between atoms: _529  and  _532
REMARK  220  A    between atoms: _532  and  _533
REMARK  221  A    between atoms: _536  and  _538
REMARK  222  A    between atoms: _538  and  _539
REMARK  223  A    between atoms: _538  and  _541
REMARK  224  A    between atoms: _541  and  _542
REMARK  225  A    between atoms: _545  and  _547
REMARK  226  A    between atoms: _547  and  _548
REMARK  227  A    between atoms: _550  and  _552
REMARK  228  A    between atoms: _552  and  _553
REMARK  229  A    between atoms: _552  and  _555
REMARK  230  A    between atoms: _555  and  _556
REMARK                            x       y       z     vdW  Elec       q    Type
REMARK                         _______ _______ _______ _____ _____    ______ ____
ROOT
ATOM      1  O   HOH     1      26.915  21.401  69.179  0.00  0.00    +0.000 OA
ENDROOT
TORSDOF 0
REMARK  Name = ../refined-set-2016/3fv3/3fv3_pocket.pdb
REMARK  230 active torsions:
REMARK  status: ('A' for Active; 'I' for Inactive)
REMARK    1  A    between atoms: _1  and  _3
REMARK    2  A    between atoms: _3  and  _4
REMARK    3  A    between atoms: _7  and  _8
REMARK    4  A    between atoms: _13  and  _15
REMARK    5  A    between atoms: _15  and  _16
REMARK    6  A    between atoms: _15  and  _18
REMARK    7  A    between atoms: _18  and  _19
REMARK    8  A    between atoms: _21  and  _23
REMARK    9  A    between atoms: _23  and  _24
REMARK   10  A    between atoms: _23  and  _26
REMARK   11  A    between atoms: _26  and  _27
REMARK   12  A    between atoms: _32  and  _33
REMARK   13  A    between atoms: _35  and  _37
REMARK   14  A    between atoms: _37  and  _38
REMARK   15  A    between atoms: _37  and  _40
REMARK   16  A    between atoms: _40  and  _41
REMARK   17  A    between atoms: _44  and  _46
REMARK   18  A    between atoms: _46  and  _47
REMARK   19  A    between atoms: _46  and  _49
REMARK   20  A    between atoms: _49  and  _50
REMARK   21  A    between atoms: _53  and  _55
REMARK   22  A    between atoms: _55  and  _56
REMARK   23  A    between atoms: _55  and  _58
REMARK   24  A    between atoms: _58  and  _59
REMARK   25  A    between atoms: _62  and  _64
REMARK   26  A    between atoms: _64  and  _65
REMARK   27  A    between atoms: _64  and  _67
REMARK   28  A    between atoms: _67  and  _68
REMARK   29  A    between atoms: _71  and  _73
REMARK   30  A    between atoms: _73  and  _74
REMARK   31  A    between atoms: _76  and  _78
REMARK   32  A    between atoms: _78  and  _79
REMARK   33  A    between atoms: _78  and  _81
REMARK   34  A    between atoms: _81  and  _82
REMARK   35  A    between atoms: _84  and  _86
REMARK   36  A    between atoms: _86  and  _87
REMARK   37  A    between atoms: _86  and  _89
REMARK   38  A    between atoms: _89  and  _90
REMARK   39  A    between atoms: _92  and  _94
REMARK   40  A    between atoms: _94  and  _95
REMARK   41  A    between atoms: _94  and  _97
REMARK   42  A    between atoms: _97  and  _98
REMARK   43  A    between atoms: _101  and  _103
REMARK   44  A    between atoms: _103  and  _104
REMARK   45  A    between atoms: _103  and  _106
REMARK   46  A    between atoms: _106  and  _107
REMARK   47  A    between atoms: _117  and  _119
REMARK   48  A    between atoms: _119  and  _120
REMARK   49  A    between atoms: _119  and  _122
REMARK   50  A    between atoms: _122  and  _123
REMARK   51  A    between atoms: _126  and  _128
REMARK   52  A    between atoms: _128  and  _129
REMARK   53  A    between atoms: _128  and  _131
REMARK   54  A    between atoms: _131  and  _132
REMARK   55  A    between atoms: _132  and  _133
REMARK   56  A    between atoms: _133  and  _134
REMARK   57  A    between atoms: _143  and  _145
REMARK   58  A    between atoms: _145  and  _146
REMARK   59  A    between atoms: _145  and  _148
REMARK   60  A    between atoms: _148  and  _149
REMARK   61  A    between atoms: _154  and  _155
REMARK   62  A    between atoms: _157  and  _159
REMARK   63  A    between atoms: _159  and  _160
REMARK   64  A    between atoms: _162  and  _164
REMARK   65  A    between atoms: _164  and  _165
REMARK   66  A    between atoms: _164  and  _167
REMARK   67  A    between atoms: _167  and  _168
REMARK   68  A    between atoms: _171  and  _173
REMARK   69  A    between atoms: _173  and  _174
REMARK   70  A    between atoms: _176  and  _178
REMARK   71  A    between atoms: _178  and  _179
REMARK   72  A    between atoms: _178  and  _181
REMARK   73  A    between atoms: _181  and  _182
REMARK   74  A    between atoms: _184  and  _186
REMARK   75  A    between atoms: _186  and  _187
REMARK   76  A    between atoms: _186  and  _189
REMARK   77  A    between atoms: _189  and  _190
REMARK   78  A    between atoms: _193  and  _195
REMARK   79  A    between atoms: _195  and  _196
REMARK   80  A    between atoms: _195  and  _198
REMARK   81  A    between atoms: _198  and  _199
REMARK   82  A    between atoms: _201  and  _203
REMARK   83  A    between atoms: _203  and  _204
REMARK   84  A    between atoms: _203  and  _206
REMARK   85  A    between atoms: _209  and  _211
REMARK   86  A    between atoms: _211  and  _212
REMARK   87  A    between atoms: _211  and  _214
REMARK   88  A    between atoms: _214  and  _215
REMARK   89  A    between atoms: _218  and  _220
REMARK   90  A    between atoms: _220  and  _221
REMARK   91  A    between atoms: _220  and  _223
REMARK   92  A    between atoms: _223  and  _224
REMARK   93  A    between atoms: _224  and  _225
REMARK   94  A    between atoms: _230  and  _232
REMARK   95  A    between atoms: _232  and  _233
REMARK   96  A    between atoms: _235  and  _237
REMARK   97  A    between atoms: _237  and  _238
REMARK   98  A    between atoms: _237  and  _240
REMARK   99  A    between atoms: _240  and  _241
REMARK  100  A    between atoms: _244  and  _246
REMARK  101  A    between atoms: _246  and  _247
REMARK  102  A    between atoms: _246  and  _249
REMARK  103  A    between atoms: _249  and  _250
REMARK  104  A    between atoms: _253  and  _255
REMARK  105  A    between atoms: _255  and  _256
REMARK  106  A    between atoms: _255  and  _258
REMARK  107  A    between atoms: _258  and  _259
REMARK  108  A    between atoms: _262  and  _264
REMARK  109  A    between atoms: _264  and  _265
REMARK  110  A    between atoms: _264  and  _267
REMARK  111  A    between atoms: _267  and  _268
REMARK  112  A    between atoms: _273  and  _275
REMARK  113  A    between atoms: _275  and  _276
REMARK  114  A    between atoms: _275  and  _278
REMARK  115  A    between atoms: _278  and  _279
REMARK  116  A    between atoms: _279  and  _280
REMARK  117  A    between atoms: _283  and  _285
REMARK  118  A    between atoms: _285  and  _286
REMARK  119  A    between atoms: _289  and  _291
REMARK  120  A    between atoms: _291  and  _292
REMARK  121  A    between atoms: _291  and  _294
REMARK  122  A    between atoms: _294  and  _295
REMARK  123  A    between atoms: _295  and  _296
REMARK  124  A    between atoms: _301  and  _303
REMARK  125  A    between atoms: _303  and  _304
REMARK  126  A    between atoms: _307  and  _309
REMARK  127  A    between atoms: _309  and  _310
REMARK  128  A    between atoms: _309  and  _312
REMARK  129  A    between atoms: _312  and  _313
REMARK  130  A    between atoms: _316  and  _318
REMARK  131  A    between atoms: _318  and  _319
REMARK  132  A    between atoms: _318  and  _321
REMARK  133  A    between atoms: _321  and  _322
REMARK  134  A    between atoms: _325  and  _327
REMARK  135  A    between atoms: _327  and  _328
REMARK  136  A    between atoms: _327  and  _330
REMARK  137  A    between atoms: _330  and  _331
REMARK  138  A    between atoms: _334  and  _336
REMARK  139  A    between atoms: _336  and  _337
REMARK  140  A    between atoms: _336  and  _339
REMARK  141  A    between atoms: _339  and  _340
REMARK  142  A    between atoms: _343  and  _345
REMARK  143  A    between atoms: _345  and  _346
REMARK  144  A    between atoms: _345  and  _348
REMARK  145  A    between atoms: _348  and  _349
REMARK  146  A    between atoms: _351  and  _353
REMARK  147  A    between atoms: _353  and  _354
REMARK  148  A    between atoms: _356  and  _358
REMARK  149  A    between atoms: _358  and  _359
REMARK  150  A    between atoms: _358  and  _361
REMARK  151  A    between atoms: _361  and  _362
REMARK  152  A    between atoms: _365  and  _367
REMARK  153  A    between atoms: _367  and  _368
REMARK  154  A    between atoms: _367  and  _370
REMARK  155  A    between atoms: _370  and  _371
REMARK  156  A    between atoms: _374  and  _376
REMARK  157  A    between atoms: _376  and  _377
REMARK  158  A    between atoms: _376  and  _379
REMARK  159  A    between atoms: _379  and  _380
REMARK  160  A    between atoms: _383  and  _385
REMARK  161  A    between atoms: _385  and  _386
REMARK  162  A    between atoms: _385  and  _388
REMARK  163  A    between atoms: _388  and  _389
REMARK  164  A    between atoms: _392  and  _394
REMARK  165  A    between atoms: _394  and  _395
REMARK  166  A    between atoms: _394  and  _397
REMARK  167  A    between atoms: _397  and  _398
REMARK  168  A    between atoms: _403  and  _404
REMARK  169  A    between atoms: _406  and  _408
REMARK  170  A    between atoms: _408  and  _409
REMARK  171  A    between atoms: _408  and  _411
REMARK  172  A    between atoms: _411  and  _412
REMARK  173  A    between atoms: _412  and  _413
REMARK  174  A    between atoms: _418  and  _420
REMARK  175  A    between atoms: _420  and  _421
REMARK  176  A    between atoms: _420  and  _423
REMARK  177  A    between atoms: _423  and  _424
REMARK  178  A    between atoms: _427  and  _429
REMARK  179  A    between atoms: _429  and  _430
REMARK  180  A    between atoms: _429  and  _432
REMARK  181  A    between atoms: _432  and  _433
REMARK  182  A    between atoms: _438  and  _439
REMARK  183  A    between atoms: _441  and  _443
REMARK  184  A    between atoms: _443  and  _444
REMARK  185  A    between atoms: _443  and  _446
REMARK  186  A    between atoms: _446  and  _447
REMARK  187  A    between atoms: _447  and  _448
REMARK  188  A    between atoms: _453  and  _455
REMARK  189  A    between atoms: _455  and  _456
REMARK  190  A    between atoms: _455  and  _458
REMARK  191  A    between atoms: _458  and  _459
REMARK  192  A    between atoms: _464  and  _466
REMARK  193  A    between atoms: _466  and  _467
REMARK  194  A    between atoms: _466  and  _469
REMARK  195  A    between atoms: _469  and  _470
REMARK  196  A    between atoms: _473  and  _475
REMARK  197  A    between atoms: _475  and  _476
REMARK  198  A    between atoms: _475  and  _478
REMARK  199  A    between atoms: _478  and  _479
REMARK  200  A    between atoms: _489  and  _491
REMARK  201  A    between atoms: _491  and  _492
REMARK  202  A    between atoms: _491  and  _494
REMARK  203  A    between atoms: _494  and  _495
REMARK  204  A    between atoms: _495  and  _496
REMARK  205  A    between atoms: _501  and  _503
REMARK  206  A    between atoms: _503  and  _504
REMARK  207  A    between atoms: _503  and  _506
REMARK  208  A    between atoms: _506  and  _507
REMARK  209  A    between atoms: _509  and  _511
REMARK  210  A    between atoms: _511  and  _512
REMARK  211  A    between atoms: _511  and  _514
REMARK  212  A    between atoms: _514  and  _515
REMARK  213  A    between atoms: _518  and  _520
REMARK  214  A    between atoms: _520  and  _521
REMARK  215  A    between atoms: _520  and  _523
REMARK  216  A    between atoms: _523  and  _524
REMARK  217  A    between atoms: _527  and  _529
REMARK  218  A    between atoms: _529  and  _530
REMARK  219  A    between atoms: _529  and  _532
REMARK  220  A    between atoms: _532  and  _533
REMARK  221  A    between atoms: _536  and  _538
REMARK  222  A    between atoms: _538  and  _539
REMARK  223  A    between atoms: _538  and  _541
REMARK  224  A    between atoms: _541  and  _542
REMARK  225  A    between atoms: _545  and  _547
REMARK  226  A    between atoms: _547  and  _548
REMARK  227  A    between atoms: _550  and  _552
REMARK  228  A    between atoms: _552  and  _553
REMARK  229  A    between atoms: _552  and  _555
REMARK  230  A    between atoms: _555  and  _556
REMARK                            x       y       z     vdW  Elec       q    Type
REMARK                         _______ _______ _______ _____ _____    ______ ____
ROOT
ATOM      1  O   HOH     1      24.962  20.174  67.510  0.00  0.00    +0.000 OA
ENDROOT
TORSDOF 0
REMARK  Name = ../refined-set-2016/3fv3/3fv3_pocket.pdb
REMARK  230 active torsions:
REMARK  status: ('A' for Active; 'I' for Inactive)
REMARK    1  A    between atoms: _1  and  _3
REMARK    2  A    between atoms: _3  and  _4
REMARK    3  A    between atoms: _7  and  _8
REMARK    4  A    between atoms: _13  and  _15
REMARK    5  A    between atoms: _15  and  _16
REMARK    6  A    between atoms: _15  and  _18
REMARK    7  A    between atoms: _18  and  _19
REMARK    8  A    between atoms: _21  and  _23
REMARK    9  A    between atoms: _23  and  _24
REMARK   10  A    between atoms: _23  and  _26
REMARK   11  A    between atoms: _26  and  _27
REMARK   12  A    between atoms: _32  and  _33
REMARK   13  A    between atoms: _35  and  _37
REMARK   14  A    between atoms: _37  and  _38
REMARK   15  A    between atoms: _37  and  _40
REMARK   16  A    between atoms: _40  and  _41
REMARK   17  A    between atoms: _44  and  _46
REMARK   18  A    between atoms: _46  and  _47
REMARK   19  A    between atoms: _46  and  _49
REMARK   20  A    between atoms: _49  and  _50
REMARK   21  A    between atoms: _53  and  _55
REMARK   22  A    between atoms: _55  and  _56
REMARK   23  A    between atoms: _55  and  _58
REMARK   24  A    between atoms: _58  and  _59
REMARK   25  A    between atoms: _62  and  _64
REMARK   26  A    between atoms: _64  and  _65
REMARK   27  A    between atoms: _64  and  _67
REMARK   28  A    between atoms: _67  and  _68
REMARK   29  A    between atoms: _71  and  _73
REMARK   30  A    between atoms: _73  and  _74
REMARK   31  A    between atoms: _76  and  _78
REMARK   32  A    between atoms: _78  and  _79
REMARK   33  A    between atoms: _78  and  _81
REMARK   34  A    between atoms: _81  and  _82
REMARK   35  A    between atoms: _84  and  _86
REMARK   36  A    between atoms: _86  and  _87
REMARK   37  A    between atoms: _86  and  _89
REMARK   38  A    between atoms: _89  and  _90
REMARK   39  A    between atoms: _92  and  _94
REMARK   40  A    between atoms: _94  and  _95
REMARK   41  A    between atoms: _94  and  _97
REMARK   42  A    between atoms: _97  and  _98
REMARK   43  A    between atoms: _101  and  _103
REMARK   44  A    between atoms: _103  and  _104
REMARK   45  A    between atoms: _103  and  _106
REMARK   46  A    between atoms: _106  and  _107
REMARK   47  A    between atoms: _117  and  _119
REMARK   48  A    between atoms: _119  and  _120
REMARK   49  A    between atoms: _119  and  _122
REMARK   50  A    between atoms: _122  and  _123
REMARK   51  A    between atoms: _126  and  _128
REMARK   52  A    between atoms: _128  and  _129
REMARK   53  A    between atoms: _128  and  _131
REMARK   54  A    between atoms: _131  and  _132
REMARK   55  A    between atoms: _132  and  _133
REMARK   56  A    between atoms: _133  and  _134
REMARK   57  A    between atoms: _143  and  _145
REMARK   58  A    between atoms: _145  and  _146
REMARK   59  A    between atoms: _145  and  _148
REMARK   60  A    between atoms: _148  and  _149
REMARK   61  A    between atoms: _154  and  _155
REMARK   62  A    between atoms: _157  and  _159
REMARK   63  A    between atoms: _159  and  _160
REMARK   64  A    between atoms: _162  and  _164
REMARK   65  A    between atoms: _164  and  _165
REMARK   66  A    between atoms: _164  and  _167
REMARK   67  A    between atoms: _167  and  _168
REMARK   68  A    between atoms: _171  and  _173
REMARK   69  A    between atoms: _173  and  _174
REMARK   70  A    between atoms: _176  and  _178
REMARK   71  A    between atoms: _178  and  _179
REMARK   72  A    between atoms: _178  and  _181
REMARK   73  A    between atoms: _181  and  _182
REMARK   74  A    between atoms: _184  and  _186
REMARK   75  A    between atoms: _186  and  _187
REMARK   76  A    between atoms: _186  and  _189
REMARK   77  A    between atoms: _189  and  _190
REMARK   78  A    between atoms: _193  and  _195
REMARK   79  A    between atoms: _195  and  _196
REMARK   80  A    between atoms: _195  and  _198
REMARK   81  A    between atoms: _198  and  _199
REMARK   82  A    between atoms: _201  and  _203
REMARK   83  A    between atoms: _203  and  _204
REMARK   84  A    between atoms: _203  and  _206
REMARK   85  A    between atoms: _209  and  _211
REMARK   86  A    between atoms: _211  and  _212
REMARK   87  A    between atoms: _211  and  _214
REMARK   88  A    between atoms: _214  and  _215
REMARK   89  A    between atoms: _218  and  _220
REMARK   90  A    between atoms: _220  and  _221
REMARK   91  A    between atoms: _220  and  _223
REMARK   92  A    between atoms: _223  and  _224
REMARK   93  A    between atoms: _224  and  _225
REMARK   94  A    between atoms: _230  and  _232
REMARK   95  A    between atoms: _232  and  _233
REMARK   96  A    between atoms: _235  and  _237
REMARK   97  A    between atoms: _237  and  _238
REMARK   98  A    between atoms: _237  and  _240
REMARK   99  A    between atoms: _240  and  _241
REMARK  100  A    between atoms: _244  and  _246
REMARK  101  A    between atoms: _246  and  _247
REMARK  102  A    between atoms: _246  and  _249
REMARK  103  A    between atoms: _249  and  _250
REMARK  104  A    between atoms: _253  and  _255
REMARK  105  A    between atoms: _255  and  _256
REMARK  106  A    between atoms: _255  and  _258
REMARK  107  A    between atoms: _258  and  _259
REMARK  108  A    between atoms: _262  and  _264
REMARK  109  A    between atoms: _264  and  _265
REMARK  110  A    between atoms: _264  and  _267
REMARK  111  A    between atoms: _267  and  _268
REMARK  112  A    between atoms: _273  and  _275
REMARK  113  A    between atoms: _275  and  _276
REMARK  114  A    between atoms: _275  and  _278
REMARK  115  A    between atoms: _278  and  _279
REMARK  116  A    between atoms: _279  and  _280
REMARK  117  A    between atoms: _283  and  _285
REMARK  118  A    between atoms: _285  and  _286
REMARK  119  A    between atoms: _289  and  _291
REMARK  120  A    between atoms: _291  and  _292
REMARK  121  A    between atoms: _291  and  _294
REMARK  122  A    between atoms: _294  and  _295
REMARK  123  A    between atoms: _295  and  _296
REMARK  124  A    between atoms: _301  and  _303
REMARK  125  A    between atoms: _303  and  _304
REMARK  126  A    between atoms: _307  and  _309
REMARK  127  A    between atoms: _309  and  _310
REMARK  128  A    between atoms: _309  and  _312
REMARK  129  A    between atoms: _312  and  _313
REMARK  130  A    between atoms: _316  and  _318
REMARK  131  A    between atoms: _318  and  _319
REMARK  132  A    between atoms: _318  and  _321
REMARK  133  A    between atoms: _321  and  _322
REMARK  134  A    between atoms: _325  and  _327
REMARK  135  A    between atoms: _327  and  _328
REMARK  136  A    between atoms: _327  and  _330
REMARK  137  A    between atoms: _330  and  _331
REMARK  138  A    between atoms: _334  and  _336
REMARK  139  A    between atoms: _336  and  _337
REMARK  140  A    between atoms: _336  and  _339
REMARK  141  A    between atoms: _339  and  _340
REMARK  142  A    between atoms: _343  and  _345
REMARK  143  A    between atoms: _345  and  _346
REMARK  144  A    between atoms: _345  and  _348
REMARK  145  A    between atoms: _348  and  _349
REMARK  146  A    between atoms: _351  and  _353
REMARK  147  A    between atoms: _353  and  _354
REMARK  148  A    between atoms: _356  and  _358
REMARK  149  A    between atoms: _358  and  _359
REMARK  150  A    between atoms: _358  and  _361
REMARK  151  A    between atoms: _361  and  _362
REMARK  152  A    between atoms: _365  and  _367
REMARK  153  A    between atoms: _367  and  _368
REMARK  154  A    between atoms: _367  and  _370
REMARK  155  A    between atoms: _370  and  _371
REMARK  156  A    between atoms: _374  and  _376
REMARK  157  A    between atoms: _376  and  _377
REMARK  158  A    between atoms: _376  and  _379
REMARK  159  A    between atoms: _379  and  _380
REMARK  160  A    between atoms: _383  and  _385
REMARK  161  A    between atoms: _385  and  _386
REMARK  162  A    between atoms: _385  and  _388
REMARK  163  A    between atoms: _388  and  _389
REMARK  164  A    between atoms: _392  and  _394
REMARK  165  A    between atoms: _394  and  _395
REMARK  166  A    between atoms: _394  and  _397
REMARK  167  A    between atoms: _397  and  _398
REMARK  168  A    between atoms: _403  and  _404
REMARK  169  A    between atoms: _406  and  _408
REMARK  170  A    between atoms: _408  and  _409
REMARK  171  A    between atoms: _408  and  _411
REMARK  172  A    between atoms: _411  and  _412
REMARK  173  A    between atoms: _412  and  _413
REMARK  174  A    between atoms: _418  and  _420
REMARK  175  A    between atoms: _420  and  _421
REMARK  176  A    between atoms: _420  and  _423
REMARK  177  A    between atoms: _423  and  _424
REMARK  178  A    between atoms: _427  and  _429
REMARK  179  A    between atoms: _429  and  _430
REMARK  180  A    between atoms: _429  and  _432
REMARK  181  A    between atoms: _432  and  _433
REMARK  182  A    between atoms: _438  and  _439
REMARK  183  A    between atoms: _441  and  _443
REMARK  184  A    between atoms: _443  and  _444
REMARK  185  A    between atoms: _443  and  _446
REMARK  186  A    between atoms: _446  and  _447
REMARK  187  A    between atoms: _447  and  _448
REMARK  188  A    between atoms: _453  and  _455
REMARK  189  A    between atoms: _455  and  _456
REMARK  190  A    between atoms: _455  and  _458
REMARK  191  A    between atoms: _458  and  _459
REMARK  192  A    between atoms: _464  and  _466
REMARK  193  A    between atoms: _466  and  _467
REMARK  194  A    between atoms: _466  and  _469
REMARK  195  A    between atoms: _469  and  _470
REMARK  196  A    between atoms: _473  and  _475
REMARK  197  A    between atoms: _475  and  _476
REMARK  198  A    between atoms: _475  and  _478
REMARK  199  A    between atoms: _478  and  _479
REMARK  200  A    between atoms: _489  and  _491
REMARK  201  A    between atoms: _491  and  _492
REMARK  202  A    between atoms: _491  and  _494
REMARK  203  A    between atoms: _494  and  _495
REMARK  204  A    between atoms: _495  and  _496
REMARK  205  A    between atoms: _501  and  _503
REMARK  206  A    between atoms: _503  and  _504
REMARK  207  A    between atoms: _503  and  _506
REMARK  208  A    between atoms: _506  and  _507
REMARK  209  A    between atoms: _509  and  _511
REMARK  210  A    between atoms: _511  and  _512
REMARK  211  A    between atoms: _511  and  _514
REMARK  212  A    between atoms: _514  and  _515
REMARK  213  A    between atoms: _518  and  _520
REMARK  214  A    between atoms: _520  and  _521
REMARK  215  A    between atoms: _520  and  _523
REMARK  216  A    between atoms: _523  and  _524
REMARK  217  A    between atoms: _527  and  _529
REMARK  218  A    between atoms: _529  and  _530
REMARK  219  A    between atoms: _529  and  _532
REMARK  220  A    between atoms: _532  and  _533
REMARK  221  A    between atoms: _536  and  _538
REMARK  222  A    between atoms: _538  and  _539
REMARK  223  A    between atoms: _538  and  _541
REMARK  224  A    between atoms: _541  and  _542
REMARK  225  A    between atoms: _545  and  _547
REMARK  226  A    between atoms: _547  and  _548
REMARK  227  A    between atoms: _550  and  _552
REMARK  228  A    between atoms: _552  and  _553
REMARK  229  A    between atoms: _552  and  _555
REMARK  230  A    between atoms: _555  and  _556
REMARK                            x       y       z     vdW  Elec       q    Type
REMARK                         _______ _______ _______ _____ _____    ______ ____
ROOT
ATOM      1  O   HOH     1      23.545  31.196  66.978  0.00  0.00    +0.000 OA
ENDROOT
TORSDOF 0
REMARK  Name = ../refined-set-2016/3fv3/3fv3_pocket.pdb
REMARK  230 active torsions:
REMARK  status: ('A' for Active; 'I' for Inactive)
REMARK    1  A    between atoms: _1  and  _3
REMARK    2  A    between atoms: _3  and  _4
REMARK    3  A    between atoms: _7  and  _8
REMARK    4  A    between atoms: _13  and  _15
REMARK    5  A    between atoms: _15  and  _16
REMARK    6  A    between atoms: _15  and  _18
REMARK    7  A    between atoms: _18  and  _19
REMARK    8  A    between atoms: _21  and  _23
REMARK    9  A    between atoms: _23  and  _24
REMARK   10  A    between atoms: _23  and  _26
REMARK   11  A    between atoms: _26  and  _27
REMARK   12  A    between atoms: _32  and  _33
REMARK   13  A    between atoms: _35  and  _37
REMARK   14  A    between atoms: _37  and  _38
REMARK   15  A    between atoms: _37  and  _40
REMARK   16  A    between atoms: _40  and  _41
REMARK   17  A    between atoms: _44  and  _46
REMARK   18  A    between atoms: _46  and  _47
REMARK   19  A    between atoms: _46  and  _49
REMARK   20  A    between atoms: _49  and  _50
REMARK   21  A    between atoms: _53  and  _55
REMARK   22  A    between atoms: _55  and  _56
REMARK   23  A    between atoms: _55  and  _58
REMARK   24  A    between atoms: _58  and  _59
REMARK   25  A    between atoms: _62  and  _64
REMARK   26  A    between atoms: _64  and  _65
REMARK   27  A    between atoms: _64  and  _67
REMARK   28  A    between atoms: _67  and  _68
REMARK   29  A    between atoms: _71  and  _73
REMARK   30  A    between atoms: _73  and  _74
REMARK   31  A    between atoms: _76  and  _78
REMARK   32  A    between atoms: _78  and  _79
REMARK   33  A    between atoms: _78  and  _81
REMARK   34  A    between atoms: _81  and  _82
REMARK   35  A    between atoms: _84  and  _86
REMARK   36  A    between atoms: _86  and  _87
REMARK   37  A    between atoms: _86  and  _89
REMARK   38  A    between atoms: _89  and  _90
REMARK   39  A    between atoms: _92  and  _94
REMARK   40  A    between atoms: _94  and  _95
REMARK   41  A    between atoms: _94  and  _97
REMARK   42  A    between atoms: _97  and  _98
REMARK   43  A    between atoms: _101  and  _103
REMARK   44  A    between atoms: _103  and  _104
REMARK   45  A    between atoms: _103  and  _106
REMARK   46  A    between atoms: _106  and  _107
REMARK   47  A    between atoms: _117  and  _119
REMARK   48  A    between atoms: _119  and  _120
REMARK   49  A    between atoms: _119  and  _122
REMARK   50  A    between atoms: _122  and  _123
REMARK   51  A    between atoms: _126  and  _128
REMARK   52  A    between atoms: _128  and  _129
REMARK   53  A    between atoms: _128  and  _131
REMARK   54  A    between atoms: _131  and  _132
REMARK   55  A    between atoms: _132  and  _133
REMARK   56  A    between atoms: _133  and  _134
REMARK   57  A    between atoms: _143  and  _145
REMARK   58  A    between atoms: _145  and  _146
REMARK   59  A    between atoms: _145  and  _148
REMARK   60  A    between atoms: _148  and  _149
REMARK   61  A    between atoms: _154  and  _155
REMARK   62  A    between atoms: _157  and  _159
REMARK   63  A    between atoms: _159  and  _160
REMARK   64  A    between atoms: _162  and  _164
REMARK   65  A    between atoms: _164  and  _165
REMARK   66  A    between atoms: _164  and  _167
REMARK   67  A    between atoms: _167  and  _168
REMARK   68  A    between atoms: _171  and  _173
REMARK   69  A    between atoms: _173  and  _174
REMARK   70  A    between atoms: _176  and  _178
REMARK   71  A    between atoms: _178  and  _179
REMARK   72  A    between atoms: _178  and  _181
REMARK   73  A    between atoms: _181  and  _182
REMARK   74  A    between atoms: _184  and  _186
REMARK   75  A    between atoms: _186  and  _187
REMARK   76  A    between atoms: _186  and  _189
REMARK   77  A    between atoms: _189  and  _190
REMARK   78  A    between atoms: _193  and  _195
REMARK   79  A    between atoms: _195  and  _196
REMARK   80  A    between atoms: _195  and  _198
REMARK   81  A    between atoms: _198  and  _199
REMARK   82  A    between atoms: _201  and  _203
REMARK   83  A    between atoms: _203  and  _204
REMARK   84  A    between atoms: _203  and  _206
REMARK   85  A    between atoms: _209  and  _211
REMARK   86  A    between atoms: _211  and  _212
REMARK   87  A    between atoms: _211  and  _214
REMARK   88  A    between atoms: _214  and  _215
REMARK   89  A    between atoms: _218  and  _220
REMARK   90  A    between atoms: _220  and  _221
REMARK   91  A    between atoms: _220  and  _223
REMARK   92  A    between atoms: _223  and  _224
REMARK   93  A    between atoms: _224  and  _225
REMARK   94  A    between atoms: _230  and  _232
REMARK   95  A    between atoms: _232  and  _233
REMARK   96  A    between atoms: _235  and  _237
REMARK   97  A    between atoms: _237  and  _238
REMARK   98  A    between atoms: _237  and  _240
REMARK   99  A    between atoms: _240  and  _241
REMARK  100  A    between atoms: _244  and  _246
REMARK  101  A    between atoms: _246  and  _247
REMARK  102  A    between atoms: _246  and  _249
REMARK  103  A    between atoms: _249  and  _250
REMARK  104  A    between atoms: _253  and  _255
REMARK  105  A    between atoms: _255  and  _256
REMARK  106  A    between atoms: _255  and  _258
REMARK  107  A    between atoms: _258  and  _259
REMARK  108  A    between atoms: _262  and  _264
REMARK  109  A    between atoms: _264  and  _265
REMARK  110  A    between atoms: _264  and  _267
REMARK  111  A    between atoms: _267  and  _268
REMARK  112  A    between atoms: _273  and  _275
REMARK  113  A    between atoms: _275  and  _276
REMARK  114  A    between atoms: _275  and  _278
REMARK  115  A    between atoms: _278  and  _279
REMARK  116  A    between atoms: _279  and  _280
REMARK  117  A    between atoms: _283  and  _285
REMARK  118  A    between atoms: _285  and  _286
REMARK  119  A    between atoms: _289  and  _291
REMARK  120  A    between atoms: _291  and  _292
REMARK  121  A    between atoms: _291  and  _294
REMARK  122  A    between atoms: _294  and  _295
REMARK  123  A    between atoms: _295  and  _296
REMARK  124  A    between atoms: _301  and  _303
REMARK  125  A    between atoms: _303  and  _304
REMARK  126  A    between atoms: _307  and  _309
REMARK  127  A    between atoms: _309  and  _310
REMARK  128  A    between atoms: _309  and  _312
REMARK  129  A    between atoms: _312  and  _313
REMARK  130  A    between atoms: _316  and  _318
REMARK  131  A    between atoms: _318  and  _319
REMARK  132  A    between atoms: _318  and  _321
REMARK  133  A    between atoms: _321  and  _322
REMARK  134  A    between atoms: _325  and  _327
REMARK  135  A    between atoms: _327  and  _328
REMARK  136  A    between atoms: _327  and  _330
REMARK  137  A    between atoms: _330  and  _331
REMARK  138  A    between atoms: _334  and  _336
REMARK  139  A    between atoms: _336  and  _337
REMARK  140  A    between atoms: _336  and  _339
REMARK  141  A    between atoms: _339  and  _340
REMARK  142  A    between atoms: _343  and  _345
REMARK  143  A    between atoms: _345  and  _346
REMARK  144  A    between atoms: _345  and  _348
REMARK  145  A    between atoms: _348  and  _349
REMARK  146  A    between atoms: _351  and  _353
REMARK  147  A    between atoms: _353  and  _354
REMARK  148  A    between atoms: _356  and  _358
REMARK  149  A    between atoms: _358  and  _359
REMARK  150  A    between atoms: _358  and  _361
REMARK  151  A    between atoms: _361  and  _362
REMARK  152  A    between atoms: _365  and  _367
REMARK  153  A    between atoms: _367  and  _368
REMARK  154  A    between atoms: _367  and  _370
REMARK  155  A    between atoms: _370  and  _371
REMARK  156  A    between atoms: _374  and  _376
REMARK  157  A    between atoms: _376  and  _377
REMARK  158  A    between atoms: _376  and  _379
REMARK  159  A    between atoms: _379  and  _380
REMARK  160  A    between atoms: _383  and  _385
REMARK  161  A    between atoms: _385  and  _386
REMARK  162  A    between atoms: _385  and  _388
REMARK  163  A    between atoms: _388  and  _389
REMARK  164  A    between atoms: _392  and  _394
REMARK  165  A    between atoms: _394  and  _395
REMARK  166  A    between atoms: _394  and  _397
REMARK  167  A    between atoms: _397  and  _398
REMARK  168  A    between atoms: _403  and  _404
REMARK  169  A    between atoms: _406  and  _408
REMARK  170  A    between atoms: _408  and  _409
REMARK  171  A    between atoms: _408  and  _411
REMARK  172  A    between atoms: _411  and  _412
REMARK  173  A    between atoms: _412  and  _413
REMARK  174  A    between atoms: _418  and  _420
REMARK  175  A    between atoms: _420  and  _421
REMARK  176  A    between atoms: _420  and  _423
REMARK  177  A    between atoms: _423  and  _424
REMARK  178  A    between atoms: _427  and  _429
REMARK  179  A    between atoms: _429  and  _430
REMARK  180  A    between atoms: _429  and  _432
REMARK  181  A    between atoms: _432  and  _433
REMARK  182  A    between atoms: _438  and  _439
REMARK  183  A    between atoms: _441  and  _443
REMARK  184  A    between atoms: _443  and  _444
REMARK  185  A    between atoms: _443  and  _446
REMARK  186  A    between atoms: _446  and  _447
REMARK  187  A    between atoms: _447  and  _448
REMARK  188  A    between atoms: _453  and  _455
REMARK  189  A    between atoms: _455  and  _456
REMARK  190  A    between atoms: _455  and  _458
REMARK  191  A    between atoms: _458  and  _459
REMARK  192  A    between atoms: _464  and  _466
REMARK  193  A    between atoms: _466  and  _467
REMARK  194  A    between atoms: _466  and  _469
REMARK  195  A    between atoms: _469  and  _470
REMARK  196  A    between atoms: _473  and  _475
REMARK  197  A    between atoms: _475  and  _476
REMARK  198  A    between atoms: _475  and  _478
REMARK  199  A    between atoms: _478  and  _479
REMARK  200  A    between atoms: _489  and  _491
REMARK  201  A    between atoms: _491  and  _492
REMARK  202  A    between atoms: _491  and  _494
REMARK  203  A    between atoms: _494  and  _495
REMARK  204  A    between atoms: _495  and  _496
REMARK  205  A    between atoms: _501  and  _503
REMARK  206  A    between atoms: _503  and  _504
REMARK  207  A    between atoms: _503  and  _506
REMARK  208  A    between atoms: _506  and  _507
REMARK  209  A    between atoms: _509  and  _511
REMARK  210  A    between atoms: _511  and  _512
REMARK  211  A    between atoms: _511  and  _514
REMARK  212  A    between atoms: _514  and  _515
REMARK  213  A    between atoms: _518  and  _520
REMARK  214  A    between atoms: _520  and  _521
REMARK  215  A    between atoms: _520  and  _523
REMARK  216  A    between atoms: _523  and  _524
REMARK  217  A    between atoms: _527  and  _529
REMARK  218  A    between atoms: _529  and  _530
REMARK  219  A    between atoms: _529  and  _532
REMARK  220  A    between atoms: _532  and  _533
REMARK  221  A    between atoms: _536  and  _538
REMARK  222  A    between atoms: _538  and  _539
REMARK  223  A    between atoms: _538  and  _541
REMARK  224  A    between atoms: _541  and  _542
REMARK  225  A    between atoms: _545  and  _547
REMARK  226  A    between atoms: _547  and  _548
REMARK  227  A    between atoms: _550  and  _552
REMARK  228  A    between atoms: _552  and  _553
REMARK  229  A    between atoms: _552  and  _555
REMARK  230  A    between atoms: _555  and  _556
REMARK                            x       y       z     vdW  Elec       q    Type
REMARK                         _______ _______ _______ _____ _____    ______ ____
ROOT
ATOM      1  O   HOH     1      27.018  23.192  66.992  0.00  0.00    +0.000 OA
ENDROOT
TORSDOF 0
REMARK  Name = ../refined-set-2016/3fv3/3fv3_pocket.pdb
REMARK  230 active torsions:
REMARK  status: ('A' for Active; 'I' for Inactive)
REMARK    1  A    between atoms: _1  and  _3
REMARK    2  A    between atoms: _3  and  _4
REMARK    3  A    between atoms: _7  and  _8
REMARK    4  A    between atoms: _13  and  _15
REMARK    5  A    between atoms: _15  and  _16
REMARK    6  A    between atoms: _15  and  _18
REMARK    7  A    between atoms: _18  and  _19
REMARK    8  A    between atoms: _21  and  _23
REMARK    9  A    between atoms: _23  and  _24
REMARK   10  A    between atoms: _23  and  _26
REMARK   11  A    between atoms: _26  and  _27
REMARK   12  A    between atoms: _32  and  _33
REMARK   13  A    between atoms: _35  and  _37
REMARK   14  A    between atoms: _37  and  _38
REMARK   15  A    between atoms: _37  and  _40
REMARK   16  A    between atoms: _40  and  _41
REMARK   17  A    between atoms: _44  and  _46
REMARK   18  A    between atoms: _46  and  _47
REMARK   19  A    between atoms: _46  and  _49
REMARK   20  A    between atoms: _49  and  _50
REMARK   21  A    between atoms: _53  and  _55
REMARK   22  A    between atoms: _55  and  _56
REMARK   23  A    between atoms: _55  and  _58
REMARK   24  A    between atoms: _58  and  _59
REMARK   25  A    between atoms: _62  and  _64
REMARK   26  A    between atoms: _64  and  _65
REMARK   27  A    between atoms: _64  and  _67
REMARK   28  A    between atoms: _67  and  _68
REMARK   29  A    between atoms: _71  and  _73
REMARK   30  A    between atoms: _73  and  _74
REMARK   31  A    between atoms: _76  and  _78
REMARK   32  A    between atoms: _78  and  _79
REMARK   33  A    between atoms: _78  and  _81
REMARK   34  A    between atoms: _81  and  _82
REMARK   35  A    between atoms: _84  and  _86
REMARK   36  A    between atoms: _86  and  _87
REMARK   37  A    between atoms: _86  and  _89
REMARK   38  A    between atoms: _89  and  _90
REMARK   39  A    between atoms: _92  and  _94
REMARK   40  A    between atoms: _94  and  _95
REMARK   41  A    between atoms: _94  and  _97
REMARK   42  A    between atoms: _97  and  _98
REMARK   43  A    between atoms: _101  and  _103
REMARK   44  A    between atoms: _103  and  _104
REMARK   45  A    between atoms: _103  and  _106
REMARK   46  A    between atoms: _106  and  _107
REMARK   47  A    between atoms: _117  and  _119
REMARK   48  A    between atoms: _119  and  _120
REMARK   49  A    between atoms: _119  and  _122
REMARK   50  A    between atoms: _122  and  _123
REMARK   51  A    between atoms: _126  and  _128
REMARK   52  A    between atoms: _128  and  _129
REMARK   53  A    between atoms: _128  and  _131
REMARK   54  A    between atoms: _131  and  _132
REMARK   55  A    between atoms: _132  and  _133
REMARK   56  A    between atoms: _133  and  _134
REMARK   57  A    between atoms: _143  and  _145
REMARK   58  A    between atoms: _145  and  _146
REMARK   59  A    between atoms: _145  and  _148
REMARK   60  A    between atoms: _148  and  _149
REMARK   61  A    between atoms: _154  and  _155
REMARK   62  A    between atoms: _157  and  _159
REMARK   63  A    between atoms: _159  and  _160
REMARK   64  A    between atoms: _162  and  _164
REMARK   65  A    between atoms: _164  and  _165
REMARK   66  A    between atoms: _164  and  _167
REMARK   67  A    between atoms: _167  and  _168
REMARK   68  A    between atoms: _171  and  _173
REMARK   69  A    between atoms: _173  and  _174
REMARK   70  A    between atoms: _176  and  _178
REMARK   71  A    between atoms: _178  and  _179
REMARK   72  A    between atoms: _178  and  _181
REMARK   73  A    between atoms: _181  and  _182
REMARK   74  A    between atoms: _184  and  _186
REMARK   75  A    between atoms: _186  and  _187
REMARK   76  A    between atoms: _186  and  _189
REMARK   77  A    between atoms: _189  and  _190
REMARK   78  A    between atoms: _193  and  _195
REMARK   79  A    between atoms: _195  and  _196
REMARK   80  A    between atoms: _195  and  _198
REMARK   81  A    between atoms: _198  and  _199
REMARK   82  A    between atoms: _201  and  _203
REMARK   83  A    between atoms: _203  and  _204
REMARK   84  A    between atoms: _203  and  _206
REMARK   85  A    between atoms: _209  and  _211
REMARK   86  A    between atoms: _211  and  _212
REMARK   87  A    between atoms: _211  and  _214
REMARK   88  A    between atoms: _214  and  _215
REMARK   89  A    between atoms: _218  and  _220
REMARK   90  A    between atoms: _220  and  _221
REMARK   91  A    between atoms: _220  and  _223
REMARK   92  A    between atoms: _223  and  _224
REMARK   93  A    between atoms: _224  and  _225
REMARK   94  A    between atoms: _230  and  _232
REMARK   95  A    between atoms: _232  and  _233
REMARK   96  A    between atoms: _235  and  _237
REMARK   97  A    between atoms: _237  and  _238
REMARK   98  A    between atoms: _237  and  _240
REMARK   99  A    between atoms: _240  and  _241
REMARK  100  A    between atoms: _244  and  _246
REMARK  101  A    between atoms: _246  and  _247
REMARK  102  A    between atoms: _246  and  _249
REMARK  103  A    between atoms: _249  and  _250
REMARK  104  A    between atoms: _253  and  _255
REMARK  105  A    between atoms: _255  and  _256
REMARK  106  A    between atoms: _255  and  _258
REMARK  107  A    between atoms: _258  and  _259
REMARK  108  A    between atoms: _262  and  _264
REMARK  109  A    between atoms: _264  and  _265
REMARK  110  A    between atoms: _264  and  _267
REMARK  111  A    between atoms: _267  and  _268
REMARK  112  A    between atoms: _273  and  _275
REMARK  113  A    between atoms: _275  and  _276
REMARK  114  A    between atoms: _275  and  _278
REMARK  115  A    between atoms: _278  and  _279
REMARK  116  A    between atoms: _279  and  _280
REMARK  117  A    between atoms: _283  and  _285
REMARK  118  A    between atoms: _285  and  _286
REMARK  119  A    between atoms: _289  and  _291
REMARK  120  A    between atoms: _291  and  _292
REMARK  121  A    between atoms: _291  and  _294
REMARK  122  A    between atoms: _294  and  _295
REMARK  123  A    between atoms: _295  and  _296
REMARK  124  A    between atoms: _301  and  _303
REMARK  125  A    between atoms: _303  and  _304
REMARK  126  A    between atoms: _307  and  _309
REMARK  127  A    between atoms: _309  and  _310
REMARK  128  A    between atoms: _309  and  _312
REMARK  129  A    between atoms: _312  and  _313
REMARK  130  A    between atoms: _316  and  _318
REMARK  131  A    between atoms: _318  and  _319
REMARK  132  A    between atoms: _318  and  _321
REMARK  133  A    between atoms: _321  and  _322
REMARK  134  A    between atoms: _325  and  _327
REMARK  135  A    between atoms: _327  and  _328
REMARK  136  A    between atoms: _327  and  _330
REMARK  137  A    between atoms: _330  and  _331
REMARK  138  A    between atoms: _334  and  _336
REMARK  139  A    between atoms: _336  and  _337
REMARK  140  A    between atoms: _336  and  _339
REMARK  141  A    between atoms: _339  and  _340
REMARK  142  A    between atoms: _343  and  _345
REMARK  143  A    between atoms: _345  and  _346
REMARK  144  A    between atoms: _345  and  _348
REMARK  145  A    between atoms: _348  and  _349
REMARK  146  A    between atoms: _351  and  _353
REMARK  147  A    between atoms: _353  and  _354
REMARK  148  A    between atoms: _356  and  _358
REMARK  149  A    between atoms: _358  and  _359
REMARK  150  A    between atoms: _358  and  _361
REMARK  151  A    between atoms: _361  and  _362
REMARK  152  A    between atoms: _365  and  _367
REMARK  153  A    between atoms: _367  and  _368
REMARK  154  A    between atoms: _367  and  _370
REMARK  155  A    between atoms: _370  and  _371
REMARK  156  A    between atoms: _374  and  _376
REMARK  157  A    between atoms: _376  and  _377
REMARK  158  A    between atoms: _376  and  _379
REMARK  159  A    between atoms: _379  and  _380
REMARK  160  A    between atoms: _383  and  _385
REMARK  161  A    between atoms: _385  and  _386
REMARK  162  A    between atoms: _385  and  _388
REMARK  163  A    between atoms: _388  and  _389
REMARK  164  A    between atoms: _392  and  _394
REMARK  165  A    between atoms: _394  and  _395
REMARK  166  A    between atoms: _394  and  _397
REMARK  167  A    between atoms: _397  and  _398
REMARK  168  A    between atoms: _403  and  _404
REMARK  169  A    between atoms: _406  and  _408
REMARK  170  A    between atoms: _408  and  _409
REMARK  171  A    between atoms: _408  and  _411
REMARK  172  A    between atoms: _411  and  _412
REMARK  173  A    between atoms: _412  and  _413
REMARK  174  A    between atoms: _418  and  _420
REMARK  175  A    between atoms: _420  and  _421
REMARK  176  A    between atoms: _420  and  _423
REMARK  177  A    between atoms: _423  and  _424
REMARK  178  A    between atoms: _427  and  _429
REMARK  179  A    between atoms: _429  and  _430
REMARK  180  A    between atoms: _429  and  _432
REMARK  181  A    between atoms: _432  and  _433
REMARK  182  A    between atoms: _438  and  _439
REMARK  183  A    between atoms: _441  and  _443
REMARK  184  A    between atoms: _443  and  _444
REMARK  185  A    between atoms: _443  and  _446
REMARK  186  A    between atoms: _446  and  _447
REMARK  187  A    between atoms: _447  and  _448
REMARK  188  A    between atoms: _453  and  _455
REMARK  189  A    between atoms: _455  and  _456
REMARK  190  A    between atoms: _455  and  _458
REMARK  191  A    between atoms: _458  and  _459
REMARK  192  A    between atoms: _464  and  _466
REMARK  193  A    between atoms: _466  and  _467
REMARK  194  A    between atoms: _466  and  _469
REMARK  195  A    between atoms: _469  and  _470
REMARK  196  A    between atoms: _473  and  _475
REMARK  197  A    between atoms: _475  and  _476
REMARK  198  A    between atoms: _475  and  _478
REMARK  199  A    between atoms: _478  and  _479
REMARK  200  A    between atoms: _489  and  _491
REMARK  201  A    between atoms: _491  and  _492
REMARK  202  A    between atoms: _491  and  _494
REMARK  203  A    between atoms: _494  and  _495
REMARK  204  A    between atoms: _495  and  _496
REMARK  205  A    between atoms: _501  and  _503
REMARK  206  A    between atoms: _503  and  _504
REMARK  207  A    between atoms: _503  and  _506
REMARK  208  A    between atoms: _506  and  _507
REMARK  209  A    between atoms: _509  and  _511
REMARK  210  A    between atoms: _511  and  _512
REMARK  211  A    between atoms: _511  and  _514
REMARK  212  A    between atoms: _514  and  _515
REMARK  213  A    between atoms: _518  and  _520
REMARK  214  A    between atoms: _520  and  _521
REMARK  215  A    between atoms: _520  and  _523
REMARK  216  A    between atoms: _523  and  _524
REMARK  217  A    between atoms: _527  and  _529
REMARK  218  A    between atoms: _529  and  _530
REMARK  219  A    between atoms: _529  and  _532
REMARK  220  A    between atoms: _532  and  _533
REMARK  221  A    between atoms: _536  and  _538
REMARK  222  A    between atoms: _538  and  _539
REMARK  223  A    between atoms: _538  and  _541
REMARK  224  A    between atoms: _541  and  _542
REMARK  225  A    between atoms: _545  and  _547
REMARK  226  A    between atoms: _547  and  _548
REMARK  227  A    between atoms: _550  and  _552
REMARK  228  A    between atoms: _552  and  _553
REMARK  229  A    between atoms: _552  and  _555
REMARK  230  A    between atoms: _555  and  _556
REMARK                            x       y       z     vdW  Elec       q    Type
REMARK                         _______ _______ _______ _____ _____    ______ ____
ROOT
ATOM      1  O   HOH     1      27.469  20.270  54.988  0.00  0.00    +0.000 OA
ENDROOT
TORSDOF 0
REMARK  Name = ../refined-set-2016/3fv3/3fv3_pocket.pdb
REMARK  230 active torsions:
REMARK  status: ('A' for Active; 'I' for Inactive)
REMARK    1  A    between atoms: _1  and  _3
REMARK    2  A    between atoms: _3  and  _4
REMARK    3  A    between atoms: _7  and  _8
REMARK    4  A    between atoms: _13  and  _15
REMARK    5  A    between atoms: _15  and  _16
REMARK    6  A    between atoms: _15  and  _18
REMARK    7  A    between atoms: _18  and  _19
REMARK    8  A    between atoms: _21  and  _23
REMARK    9  A    between atoms: _23  and  _24
REMARK   10  A    between atoms: _23  and  _26
REMARK   11  A    between atoms: _26  and  _27
REMARK   12  A    between atoms: _32  and  _33
REMARK   13  A    between atoms: _35  and  _37
REMARK   14  A    between atoms: _37  and  _38
REMARK   15  A    between atoms: _37  and  _40
REMARK   16  A    between atoms: _40  and  _41
REMARK   17  A    between atoms: _44  and  _46
REMARK   18  A    between atoms: _46  and  _47
REMARK   19  A    between atoms: _46  and  _49
REMARK   20  A    between atoms: _49  and  _50
REMARK   21  A    between atoms: _53  and  _55
REMARK   22  A    between atoms: _55  and  _56
REMARK   23  A    between atoms: _55  and  _58
REMARK   24  A    between atoms: _58  and  _59
REMARK   25  A    between atoms: _62  and  _64
REMARK   26  A    between atoms: _64  and  _65
REMARK   27  A    between atoms: _64  and  _67
REMARK   28  A    between atoms: _67  and  _68
REMARK   29  A    between atoms: _71  and  _73
REMARK   30  A    between atoms: _73  and  _74
REMARK   31  A    between atoms: _76  and  _78
REMARK   32  A    between atoms: _78  and  _79
REMARK   33  A    between atoms: _78  and  _81
REMARK   34  A    between atoms: _81  and  _82
REMARK   35  A    between atoms: _84  and  _86
REMARK   36  A    between atoms: _86  and  _87
REMARK   37  A    between atoms: _86  and  _89
REMARK   38  A    between atoms: _89  and  _90
REMARK   39  A    between atoms: _92  and  _94
REMARK   40  A    between atoms: _94  and  _95
REMARK   41  A    between atoms: _94  and  _97
REMARK   42  A    between atoms: _97  and  _98
REMARK   43  A    between atoms: _101  and  _103
REMARK   44  A    between atoms: _103  and  _104
REMARK   45  A    between atoms: _103  and  _106
REMARK   46  A    between atoms: _106  and  _107
REMARK   47  A    between atoms: _117  and  _119
REMARK   48  A    between atoms: _119  and  _120
REMARK   49  A    between atoms: _119  and  _122
REMARK   50  A    between atoms: _122  and  _123
REMARK   51  A    between atoms: _126  and  _128
REMARK   52  A    between atoms: _128  and  _129
REMARK   53  A    between atoms: _128  and  _131
REMARK   54  A    between atoms: _131  and  _132
REMARK   55  A    between atoms: _132  and  _133
REMARK   56  A    between atoms: _133  and  _134
REMARK   57  A    between atoms: _143  and  _145
REMARK   58  A    between atoms: _145  and  _146
REMARK   59  A    between atoms: _145  and  _148
REMARK   60  A    between atoms: _148  and  _149
REMARK   61  A    between atoms: _154  and  _155
REMARK   62  A    between atoms: _157  and  _159
REMARK   63  A    between atoms: _159  and  _160
REMARK   64  A    between atoms: _162  and  _164
REMARK   65  A    between atoms: _164  and  _165
REMARK   66  A    between atoms: _164  and  _167
REMARK   67  A    between atoms: _167  and  _168
REMARK   68  A    between atoms: _171  and  _173
REMARK   69  A    between atoms: _173  and  _174
REMARK   70  A    between atoms: _176  and  _178
REMARK   71  A    between atoms: _178  and  _179
REMARK   72  A    between atoms: _178  and  _181
REMARK   73  A    between atoms: _181  and  _182
REMARK   74  A    between atoms: _184  and  _186
REMARK   75  A    between atoms: _186  and  _187
REMARK   76  A    between atoms: _186  and  _189
REMARK   77  A    between atoms: _189  and  _190
REMARK   78  A    between atoms: _193  and  _195
REMARK   79  A    between atoms: _195  and  _196
REMARK   80  A    between atoms: _195  and  _198
REMARK   81  A    between atoms: _198  and  _199
REMARK   82  A    between atoms: _201  and  _203
REMARK   83  A    between atoms: _203  and  _204
REMARK   84  A    between atoms: _203  and  _206
REMARK   85  A    between atoms: _209  and  _211
REMARK   86  A    between atoms: _211  and  _212
REMARK   87  A    between atoms: _211  and  _214
REMARK   88  A    between atoms: _214  and  _215
REMARK   89  A    between atoms: _218  and  _220
REMARK   90  A    between atoms: _220  and  _221
REMARK   91  A    between atoms: _220  and  _223
REMARK   92  A    between atoms: _223  and  _224
REMARK   93  A    between atoms: _224  and  _225
REMARK   94  A    between atoms: _230  and  _232
REMARK   95  A    between atoms: _232  and  _233
REMARK   96  A    between atoms: _235  and  _237
REMARK   97  A    between atoms: _237  and  _238
REMARK   98  A    between atoms: _237  and  _240
REMARK   99  A    between atoms: _240  and  _241
REMARK  100  A    between atoms: _244  and  _246
REMARK  101  A    between atoms: _246  and  _247
REMARK  102  A    between atoms: _246  and  _249
REMARK  103  A    between atoms: _249  and  _250
REMARK  104  A    between atoms: _253  and  _255
REMARK  105  A    between atoms: _255  and  _256
REMARK  106  A    between atoms: _255  and  _258
REMARK  107  A    between atoms: _258  and  _259
REMARK  108  A    between atoms: _262  and  _264
REMARK  109  A    between atoms: _264  and  _265
REMARK  110  A    between atoms: _264  and  _267
REMARK  111  A    between atoms: _267  and  _268
REMARK  112  A    between atoms: _273  and  _275
REMARK  113  A    between atoms: _275  and  _276
REMARK  114  A    between atoms: _275  and  _278
REMARK  115  A    between atoms: _278  and  _279
REMARK  116  A    between atoms: _279  and  _280
REMARK  117  A    between atoms: _283  and  _285
REMARK  118  A    between atoms: _285  and  _286
REMARK  119  A    between atoms: _289  and  _291
REMARK  120  A    between atoms: _291  and  _292
REMARK  121  A    between atoms: _291  and  _294
REMARK  122  A    between atoms: _294  and  _295
REMARK  123  A    between atoms: _295  and  _296
REMARK  124  A    between atoms: _301  and  _303
REMARK  125  A    between atoms: _303  and  _304
REMARK  126  A    between atoms: _307  and  _309
REMARK  127  A    between atoms: _309  and  _310
REMARK  128  A    between atoms: _309  and  _312
REMARK  129  A    between atoms: _312  and  _313
REMARK  130  A    between atoms: _316  and  _318
REMARK  131  A    between atoms: _318  and  _319
REMARK  132  A    between atoms: _318  and  _321
REMARK  133  A    between atoms: _321  and  _322
REMARK  134  A    between atoms: _325  and  _327
REMARK  135  A    between atoms: _327  and  _328
REMARK  136  A    between atoms: _327  and  _330
REMARK  137  A    between atoms: _330  and  _331
REMARK  138  A    between atoms: _334  and  _336
REMARK  139  A    between atoms: _336  and  _337
REMARK  140  A    between atoms: _336  and  _339
REMARK  141  A    between atoms: _339  and  _340
REMARK  142  A    between atoms: _343  and  _345
REMARK  143  A    between atoms: _345  and  _346
REMARK  144  A    between atoms: _345  and  _348
REMARK  145  A    between atoms: _348  and  _349
REMARK  146  A    between atoms: _351  and  _353
REMARK  147  A    between atoms: _353  and  _354
REMARK  148  A    between atoms: _356  and  _358
REMARK  149  A    between atoms: _358  and  _359
REMARK  150  A    between atoms: _358  and  _361
REMARK  151  A    between atoms: _361  and  _362
REMARK  152  A    between atoms: _365  and  _367
REMARK  153  A    between atoms: _367  and  _368
REMARK  154  A    between atoms: _367  and  _370
REMARK  155  A    between atoms: _370  and  _371
REMARK  156  A    between atoms: _374  and  _376
REMARK  157  A    between atoms: _376  and  _377
REMARK  158  A    between atoms: _376  and  _379
REMARK  159  A    between atoms: _379  and  _380
REMARK  160  A    between atoms: _383  and  _385
REMARK  161  A    between atoms: _385  and  _386
REMARK  162  A    between atoms: _385  and  _388
REMARK  163  A    between atoms: _388  and  _389
REMARK  164  A    between atoms: _392  and  _394
REMARK  165  A    between atoms: _394  and  _395
REMARK  166  A    between atoms: _394  and  _397
REMARK  167  A    between atoms: _397  and  _398
REMARK  168  A    between atoms: _403  and  _404
REMARK  169  A    between atoms: _406  and  _408
REMARK  170  A    between atoms: _408  and  _409
REMARK  171  A    between atoms: _408  and  _411
REMARK  172  A    between atoms: _411  and  _412
REMARK  173  A    between atoms: _412  and  _413
REMARK  174  A    between atoms: _418  and  _420
REMARK  175  A    between atoms: _420  and  _421
REMARK  176  A    between atoms: _420  and  _423
REMARK  177  A    between atoms: _423  and  _424
REMARK  178  A    between atoms: _427  and  _429
REMARK  179  A    between atoms: _429  and  _430
REMARK  180  A    between atoms: _429  and  _432
REMARK  181  A    between atoms: _432  and  _433
REMARK  182  A    between atoms: _438  and  _439
REMARK  183  A    between atoms: _441  and  _443
REMARK  184  A    between atoms: _443  and  _444
REMARK  185  A    between atoms: _443  and  _446
REMARK  186  A    between atoms: _446  and  _447
REMARK  187  A    between atoms: _447  and  _448
REMARK  188  A    between atoms: _453  and  _455
REMARK  189  A    between atoms: _455  and  _456
REMARK  190  A    between atoms: _455  and  _458
REMARK  191  A    between atoms: _458  and  _459
REMARK  192  A    between atoms: _464  and  _466
REMARK  193  A    between atoms: _466  and  _467
REMARK  194  A    between atoms: _466  and  _469
REMARK  195  A    between atoms: _469  and  _470
REMARK  196  A    between atoms: _473  and  _475
REMARK  197  A    between atoms: _475  and  _476
REMARK  198  A    between atoms: _475  and  _478
REMARK  199  A    between atoms: _478  and  _479
REMARK  200  A    between atoms: _489  and  _491
REMARK  201  A    between atoms: _491  and  _492
REMARK  202  A    between atoms: _491  and  _494
REMARK  203  A    between atoms: _494  and  _495
REMARK  204  A    between atoms: _495  and  _496
REMARK  205  A    between atoms: _501  and  _503
REMARK  206  A    between atoms: _503  and  _504
REMARK  207  A    between atoms: _503  and  _506
REMARK  208  A    between atoms: _506  and  _507
REMARK  209  A    between atoms: _509  and  _511
REMARK  210  A    between atoms: _511  and  _512
REMARK  211  A    between atoms: _511  and  _514
REMARK  212  A    between atoms: _514  and  _515
REMARK  213  A    between atoms: _518  and  _520
REMARK  214  A    between atoms: _520  and  _521
REMARK  215  A    between atoms: _520  and  _523
REMARK  216  A    between atoms: _523  and  _524
REMARK  217  A    between atoms: _527  and  _529
REMARK  218  A    between atoms: _529  and  _530
REMARK  219  A    between atoms: _529  and  _532
REMARK  220  A    between atoms: _532  and  _533
REMARK  221  A    between atoms: _536  and  _538
REMARK  222  A    between atoms: _538  and  _539
REMARK  223  A    between atoms: _538  and  _541
REMARK  224  A    between atoms: _541  and  _542
REMARK  225  A    between atoms: _545  and  _547
REMARK  226  A    between atoms: _547  and  _548
REMARK  227  A    between atoms: _550  and  _552
REMARK  228  A    between atoms: _552  and  _553
REMARK  229  A    between atoms: _552  and  _555
REMARK  230  A    between atoms: _555  and  _556
REMARK                            x       y       z     vdW  Elec       q    Type
REMARK                         _______ _______ _______ _____ _____    ______ ____
ROOT
ATOM      1  O   HOH     1      14.762  17.823  51.409  0.00  0.00    +0.000 OA
ENDROOT
TORSDOF 0
REMARK  Name = ../refined-set-2016/3fv3/3fv3_pocket.pdb
REMARK  230 active torsions:
REMARK  status: ('A' for Active; 'I' for Inactive)
REMARK    1  A    between atoms: _1  and  _3
REMARK    2  A    between atoms: _3  and  _4
REMARK    3  A    between atoms: _7  and  _8
REMARK    4  A    between atoms: _13  and  _15
REMARK    5  A    between atoms: _15  and  _16
REMARK    6  A    between atoms: _15  and  _18
REMARK    7  A    between atoms: _18  and  _19
REMARK    8  A    between atoms: _21  and  _23
REMARK    9  A    between atoms: _23  and  _24
REMARK   10  A    between atoms: _23  and  _26
REMARK   11  A    between atoms: _26  and  _27
REMARK   12  A    between atoms: _32  and  _33
REMARK   13  A    between atoms: _35  and  _37
REMARK   14  A    between atoms: _37  and  _38
REMARK   15  A    between atoms: _37  and  _40
REMARK   16  A    between atoms: _40  and  _41
REMARK   17  A    between atoms: _44  and  _46
REMARK   18  A    between atoms: _46  and  _47
REMARK   19  A    between atoms: _46  and  _49
REMARK   20  A    between atoms: _49  and  _50
REMARK   21  A    between atoms: _53  and  _55
REMARK   22  A    between atoms: _55  and  _56
REMARK   23  A    between atoms: _55  and  _58
REMARK   24  A    between atoms: _58  and  _59
REMARK   25  A    between atoms: _62  and  _64
REMARK   26  A    between atoms: _64  and  _65
REMARK   27  A    between atoms: _64  and  _67
REMARK   28  A    between atoms: _67  and  _68
REMARK   29  A    between atoms: _71  and  _73
REMARK   30  A    between atoms: _73  and  _74
REMARK   31  A    between atoms: _76  and  _78
REMARK   32  A    between atoms: _78  and  _79
REMARK   33  A    between atoms: _78  and  _81
REMARK   34  A    between atoms: _81  and  _82
REMARK   35  A    between atoms: _84  and  _86
REMARK   36  A    between atoms: _86  and  _87
REMARK   37  A    between atoms: _86  and  _89
REMARK   38  A    between atoms: _89  and  _90
REMARK   39  A    between atoms: _92  and  _94
REMARK   40  A    between atoms: _94  and  _95
REMARK   41  A    between atoms: _94  and  _97
REMARK   42  A    between atoms: _97  and  _98
REMARK   43  A    between atoms: _101  and  _103
REMARK   44  A    between atoms: _103  and  _104
REMARK   45  A    between atoms: _103  and  _106
REMARK   46  A    between atoms: _106  and  _107
REMARK   47  A    between atoms: _117  and  _119
REMARK   48  A    between atoms: _119  and  _120
REMARK   49  A    between atoms: _119  and  _122
REMARK   50  A    between atoms: _122  and  _123
REMARK   51  A    between atoms: _126  and  _128
REMARK   52  A    between atoms: _128  and  _129
REMARK   53  A    between atoms: _128  and  _131
REMARK   54  A    between atoms: _131  and  _132
REMARK   55  A    between atoms: _132  and  _133
REMARK   56  A    between atoms: _133  and  _134
REMARK   57  A    between atoms: _143  and  _145
REMARK   58  A    between atoms: _145  and  _146
REMARK   59  A    between atoms: _145  and  _148
REMARK   60  A    between atoms: _148  and  _149
REMARK   61  A    between atoms: _154  and  _155
REMARK   62  A    between atoms: _157  and  _159
REMARK   63  A    between atoms: _159  and  _160
REMARK   64  A    between atoms: _162  and  _164
REMARK   65  A    between atoms: _164  and  _165
REMARK   66  A    between atoms: _164  and  _167
REMARK   67  A    between atoms: _167  and  _168
REMARK   68  A    between atoms: _171  and  _173
REMARK   69  A    between atoms: _173  and  _174
REMARK   70  A    between atoms: _176  and  _178
REMARK   71  A    between atoms: _178  and  _179
REMARK   72  A    between atoms: _178  and  _181
REMARK   73  A    between atoms: _181  and  _182
REMARK   74  A    between atoms: _184  and  _186
REMARK   75  A    between atoms: _186  and  _187
REMARK   76  A    between atoms: _186  and  _189
REMARK   77  A    between atoms: _189  and  _190
REMARK   78  A    between atoms: _193  and  _195
REMARK   79  A    between atoms: _195  and  _196
REMARK   80  A    between atoms: _195  and  _198
REMARK   81  A    between atoms: _198  and  _199
REMARK   82  A    between atoms: _201  and  _203
REMARK   83  A    between atoms: _203  and  _204
REMARK   84  A    between atoms: _203  and  _206
REMARK   85  A    between atoms: _209  and  _211
REMARK   86  A    between atoms: _211  and  _212
REMARK   87  A    between atoms: _211  and  _214
REMARK   88  A    between atoms: _214  and  _215
REMARK   89  A    between atoms: _218  and  _220
REMARK   90  A    between atoms: _220  and  _221
REMARK   91  A    between atoms: _220  and  _223
REMARK   92  A    between atoms: _223  and  _224
REMARK   93  A    between atoms: _224  and  _225
REMARK   94  A    between atoms: _230  and  _232
REMARK   95  A    between atoms: _232  and  _233
REMARK   96  A    between atoms: _235  and  _237
REMARK   97  A    between atoms: _237  and  _238
REMARK   98  A    between atoms: _237  and  _240
REMARK   99  A    between atoms: _240  and  _241
REMARK  100  A    between atoms: _244  and  _246
REMARK  101  A    between atoms: _246  and  _247
REMARK  102  A    between atoms: _246  and  _249
REMARK  103  A    between atoms: _249  and  _250
REMARK  104  A    between atoms: _253  and  _255
REMARK  105  A    between atoms: _255  and  _256
REMARK  106  A    between atoms: _255  and  _258
REMARK  107  A    between atoms: _258  and  _259
REMARK  108  A    between atoms: _262  and  _264
REMARK  109  A    between atoms: _264  and  _265
REMARK  110  A    between atoms: _264  and  _267
REMARK  111  A    between atoms: _267  and  _268
REMARK  112  A    between atoms: _273  and  _275
REMARK  113  A    between atoms: _275  and  _276
REMARK  114  A    between atoms: _275  and  _278
REMARK  115  A    between atoms: _278  and  _279
REMARK  116  A    between atoms: _279  and  _280
REMARK  117  A    between atoms: _283  and  _285
REMARK  118  A    between atoms: _285  and  _286
REMARK  119  A    between atoms: _289  and  _291
REMARK  120  A    between atoms: _291  and  _292
REMARK  121  A    between atoms: _291  and  _294
REMARK  122  A    between atoms: _294  and  _295
REMARK  123  A    between atoms: _295  and  _296
REMARK  124  A    between atoms: _301  and  _303
REMARK  125  A    between atoms: _303  and  _304
REMARK  126  A    between atoms: _307  and  _309
REMARK  127  A    between atoms: _309  and  _310
REMARK  128  A    between atoms: _309  and  _312
REMARK  129  A    between atoms: _312  and  _313
REMARK  130  A    between atoms: _316  and  _318
REMARK  131  A    between atoms: _318  and  _319
REMARK  132  A    between atoms: _318  and  _321
REMARK  133  A    between atoms: _321  and  _322
REMARK  134  A    between atoms: _325  and  _327
REMARK  135  A    between atoms: _327  and  _328
REMARK  136  A    between atoms: _327  and  _330
REMARK  137  A    between atoms: _330  and  _331
REMARK  138  A    between atoms: _334  and  _336
REMARK  139  A    between atoms: _336  and  _337
REMARK  140  A    between atoms: _336  and  _339
REMARK  141  A    between atoms: _339  and  _340
REMARK  142  A    between atoms: _343  and  _345
REMARK  143  A    between atoms: _345  and  _346
REMARK  144  A    between atoms: _345  and  _348
REMARK  145  A    between atoms: _348  and  _349
REMARK  146  A    between atoms: _351  and  _353
REMARK  147  A    between atoms: _353  and  _354
REMARK  148  A    between atoms: _356  and  _358
REMARK  149  A    between atoms: _358  and  _359
REMARK  150  A    between atoms: _358  and  _361
REMARK  151  A    between atoms: _361  and  _362
REMARK  152  A    between atoms: _365  and  _367
REMARK  153  A    between atoms: _367  and  _368
REMARK  154  A    between atoms: _367  and  _370
REMARK  155  A    between atoms: _370  and  _371
REMARK  156  A    between atoms: _374  and  _376
REMARK  157  A    between atoms: _376  and  _377
REMARK  158  A    between atoms: _376  and  _379
REMARK  159  A    between atoms: _379  and  _380
REMARK  160  A    between atoms: _383  and  _385
REMARK  161  A    between atoms: _385  and  _386
REMARK  162  A    between atoms: _385  and  _388
REMARK  163  A    between atoms: _388  and  _389
REMARK  164  A    between atoms: _392  and  _394
REMARK  165  A    between atoms: _394  and  _395
REMARK  166  A    between atoms: _394  and  _397
REMARK  167  A    between atoms: _397  and  _398
REMARK  168  A    between atoms: _403  and  _404
REMARK  169  A    between atoms: _406  and  _408
REMARK  170  A    between atoms: _408  and  _409
REMARK  171  A    between atoms: _408  and  _411
REMARK  172  A    between atoms: _411  and  _412
REMARK  173  A    between atoms: _412  and  _413
REMARK  174  A    between atoms: _418  and  _420
REMARK  175  A    between atoms: _420  and  _421
REMARK  176  A    between atoms: _420  and  _423
REMARK  177  A    between atoms: _423  and  _424
REMARK  178  A    between atoms: _427  and  _429
REMARK  179  A    between atoms: _429  and  _430
REMARK  180  A    between atoms: _429  and  _432
REMARK  181  A    between atoms: _432  and  _433
REMARK  182  A    between atoms: _438  and  _439
REMARK  183  A    between atoms: _441  and  _443
REMARK  184  A    between atoms: _443  and  _444
REMARK  185  A    between atoms: _443  and  _446
REMARK  186  A    between atoms: _446  and  _447
REMARK  187  A    between atoms: _447  and  _448
REMARK  188  A    between atoms: _453  and  _455
REMARK  189  A    between atoms: _455  and  _456
REMARK  190  A    between atoms: _455  and  _458
REMARK  191  A    between atoms: _458  and  _459
REMARK  192  A    between atoms: _464  and  _466
REMARK  193  A    between atoms: _466  and  _467
REMARK  194  A    between atoms: _466  and  _469
REMARK  195  A    between atoms: _469  and  _470
REMARK  196  A    between atoms: _473  and  _475
REMARK  197  A    between atoms: _475  and  _476
REMARK  198  A    between atoms: _475  and  _478
REMARK  199  A    between atoms: _478  and  _479
REMARK  200  A    between atoms: _489  and  _491
REMARK  201  A    between atoms: _491  and  _492
REMARK  202  A    between atoms: _491  and  _494
REMARK  203  A    between atoms: _494  and  _495
REMARK  204  A    between atoms: _495  and  _496
REMARK  205  A    between atoms: _501  and  _503
REMARK  206  A    between atoms: _503  and  _504
REMARK  207  A    between atoms: _503  and  _506
REMARK  208  A    between atoms: _506  and  _507
REMARK  209  A    between atoms: _509  and  _511
REMARK  210  A    between atoms: _511  and  _512
REMARK  211  A    between atoms: _511  and  _514
REMARK  212  A    between atoms: _514  and  _515
REMARK  213  A    between atoms: _518  and  _520
REMARK  214  A    between atoms: _520  and  _521
REMARK  215  A    between atoms: _520  and  _523
REMARK  216  A    between atoms: _523  and  _524
REMARK  217  A    between atoms: _527  and  _529
REMARK  218  A    between atoms: _529  and  _530
REMARK  219  A    between atoms: _529  and  _532
REMARK  220  A    between atoms: _532  and  _533
REMARK  221  A    between atoms: _536  and  _538
REMARK  222  A    between atoms: _538  and  _539
REMARK  223  A    between atoms: _538  and  _541
REMARK  224  A    between atoms: _541  and  _542
REMARK  225  A    between atoms: _545  and  _547
REMARK  226  A    between atoms: _547  and  _548
REMARK  227  A    between atoms: _550  and  _552
REMARK  228  A    between atoms: _552  and  _553
REMARK  229  A    between atoms: _552  and  _555
REMARK  230  A    between atoms: _555  and  _556
REMARK                            x       y       z     vdW  Elec       q    Type
REMARK                         _______ _______ _______ _____ _____    ______ ____
ROOT
ATOM      1  O   HOH     1      15.260  32.189  55.658  0.00  0.00    +0.000 OA
ENDROOT
TORSDOF 0
REMARK  Name = ../refined-set-2016/3fv3/3fv3_pocket.pdb
REMARK  230 active torsions:
REMARK  status: ('A' for Active; 'I' for Inactive)
REMARK    1  A    between atoms: _1  and  _3
REMARK    2  A    between atoms: _3  and  _4
REMARK    3  A    between atoms: _7  and  _8
REMARK    4  A    between atoms: _13  and  _15
REMARK    5  A    between atoms: _15  and  _16
REMARK    6  A    between atoms: _15  and  _18
REMARK    7  A    between atoms: _18  and  _19
REMARK    8  A    between atoms: _21  and  _23
REMARK    9  A    between atoms: _23  and  _24
REMARK   10  A    between atoms: _23  and  _26
REMARK   11  A    between atoms: _26  and  _27
REMARK   12  A    between atoms: _32  and  _33
REMARK   13  A    between atoms: _35  and  _37
REMARK   14  A    between atoms: _37  and  _38
REMARK   15  A    between atoms: _37  and  _40
REMARK   16  A    between atoms: _40  and  _41
REMARK   17  A    between atoms: _44  and  _46
REMARK   18  A    between atoms: _46  and  _47
REMARK   19  A    between atoms: _46  and  _49
REMARK   20  A    between atoms: _49  and  _50
REMARK   21  A    between atoms: _53  and  _55
REMARK   22  A    between atoms: _55  and  _56
REMARK   23  A    between atoms: _55  and  _58
REMARK   24  A    between atoms: _58  and  _59
REMARK   25  A    between atoms: _62  and  _64
REMARK   26  A    between atoms: _64  and  _65
REMARK   27  A    between atoms: _64  and  _67
REMARK   28  A    between atoms: _67  and  _68
REMARK   29  A    between atoms: _71  and  _73
REMARK   30  A    between atoms: _73  and  _74
REMARK   31  A    between atoms: _76  and  _78
REMARK   32  A    between atoms: _78  and  _79
REMARK   33  A    between atoms: _78  and  _81
REMARK   34  A    between atoms: _81  and  _82
REMARK   35  A    between atoms: _84  and  _86
REMARK   36  A    between atoms: _86  and  _87
REMARK   37  A    between atoms: _86  and  _89
REMARK   38  A    between atoms: _89  and  _90
REMARK   39  A    between atoms: _92  and  _94
REMARK   40  A    between atoms: _94  and  _95
REMARK   41  A    between atoms: _94  and  _97
REMARK   42  A    between atoms: _97  and  _98
REMARK   43  A    between atoms: _101  and  _103
REMARK   44  A    between atoms: _103  and  _104
REMARK   45  A    between atoms: _103  and  _106
REMARK   46  A    between atoms: _106  and  _107
REMARK   47  A    between atoms: _117  and  _119
REMARK   48  A    between atoms: _119  and  _120
REMARK   49  A    between atoms: _119  and  _122
REMARK   50  A    between atoms: _122  and  _123
REMARK   51  A    between atoms: _126  and  _128
REMARK   52  A    between atoms: _128  and  _129
REMARK   53  A    between atoms: _128  and  _131
REMARK   54  A    between atoms: _131  and  _132
REMARK   55  A    between atoms: _132  and  _133
REMARK   56  A    between atoms: _133  and  _134
REMARK   57  A    between atoms: _143  and  _145
REMARK   58  A    between atoms: _145  and  _146
REMARK   59  A    between atoms: _145  and  _148
REMARK   60  A    between atoms: _148  and  _149
REMARK   61  A    between atoms: _154  and  _155
REMARK   62  A    between atoms: _157  and  _159
REMARK   63  A    between atoms: _159  and  _160
REMARK   64  A    between atoms: _162  and  _164
REMARK   65  A    between atoms: _164  and  _165
REMARK   66  A    between atoms: _164  and  _167
REMARK   67  A    between atoms: _167  and  _168
REMARK   68  A    between atoms: _171  and  _173
REMARK   69  A    between atoms: _173  and  _174
REMARK   70  A    between atoms: _176  and  _178
REMARK   71  A    between atoms: _178  and  _179
REMARK   72  A    between atoms: _178  and  _181
REMARK   73  A    between atoms: _181  and  _182
REMARK   74  A    between atoms: _184  and  _186
REMARK   75  A    between atoms: _186  and  _187
REMARK   76  A    between atoms: _186  and  _189
REMARK   77  A    between atoms: _189  and  _190
REMARK   78  A    between atoms: _193  and  _195
REMARK   79  A    between atoms: _195  and  _196
REMARK   80  A    between atoms: _195  and  _198
REMARK   81  A    between atoms: _198  and  _199
REMARK   82  A    between atoms: _201  and  _203
REMARK   83  A    between atoms: _203  and  _204
REMARK   84  A    between atoms: _203  and  _206
REMARK   85  A    between atoms: _209  and  _211
REMARK   86  A    between atoms: _211  and  _212
REMARK   87  A    between atoms: _211  and  _214
REMARK   88  A    between atoms: _214  and  _215
REMARK   89  A    between atoms: _218  and  _220
REMARK   90  A    between atoms: _220  and  _221
REMARK   91  A    between atoms: _220  and  _223
REMARK   92  A    between atoms: _223  and  _224
REMARK   93  A    between atoms: _224  and  _225
REMARK   94  A    between atoms: _230  and  _232
REMARK   95  A    between atoms: _232  and  _233
REMARK   96  A    between atoms: _235  and  _237
REMARK   97  A    between atoms: _237  and  _238
REMARK   98  A    between atoms: _237  and  _240
REMARK   99  A    between atoms: _240  and  _241
REMARK  100  A    between atoms: _244  and  _246
REMARK  101  A    between atoms: _246  and  _247
REMARK  102  A    between atoms: _246  and  _249
REMARK  103  A    between atoms: _249  and  _250
REMARK  104  A    between atoms: _253  and  _255
REMARK  105  A    between atoms: _255  and  _256
REMARK  106  A    between atoms: _255  and  _258
REMARK  107  A    between atoms: _258  and  _259
REMARK  108  A    between atoms: _262  and  _264
REMARK  109  A    between atoms: _264  and  _265
REMARK  110  A    between atoms: _264  and  _267
REMARK  111  A    between atoms: _267  and  _268
REMARK  112  A    between atoms: _273  and  _275
REMARK  113  A    between atoms: _275  and  _276
REMARK  114  A    between atoms: _275  and  _278
REMARK  115  A    between atoms: _278  and  _279
REMARK  116  A    between atoms: _279  and  _280
REMARK  117  A    between atoms: _283  and  _285
REMARK  118  A    between atoms: _285  and  _286
REMARK  119  A    between atoms: _289  and  _291
REMARK  120  A    between atoms: _291  and  _292
REMARK  121  A    between atoms: _291  and  _294
REMARK  122  A    between atoms: _294  and  _295
REMARK  123  A    between atoms: _295  and  _296
REMARK  124  A    between atoms: _301  and  _303
REMARK  125  A    between atoms: _303  and  _304
REMARK  126  A    between atoms: _307  and  _309
REMARK  127  A    between atoms: _309  and  _310
REMARK  128  A    between atoms: _309  and  _312
REMARK  129  A    between atoms: _312  and  _313
REMARK  130  A    between atoms: _316  and  _318
REMARK  131  A    between atoms: _318  and  _319
REMARK  132  A    between atoms: _318  and  _321
REMARK  133  A    between atoms: _321  and  _322
REMARK  134  A    between atoms: _325  and  _327
REMARK  135  A    between atoms: _327  and  _328
REMARK  136  A    between atoms: _327  and  _330
REMARK  137  A    between atoms: _330  and  _331
REMARK  138  A    between atoms: _334  and  _336
REMARK  139  A    between atoms: _336  and  _337
REMARK  140  A    between atoms: _336  and  _339
REMARK  141  A    between atoms: _339  and  _340
REMARK  142  A    between atoms: _343  and  _345
REMARK  143  A    between atoms: _345  and  _346
REMARK  144  A    between atoms: _345  and  _348
REMARK  145  A    between atoms: _348  and  _349
REMARK  146  A    between atoms: _351  and  _353
REMARK  147  A    between atoms: _353  and  _354
REMARK  148  A    between atoms: _356  and  _358
REMARK  149  A    between atoms: _358  and  _359
REMARK  150  A    between atoms: _358  and  _361
REMARK  151  A    between atoms: _361  and  _362
REMARK  152  A    between atoms: _365  and  _367
REMARK  153  A    between atoms: _367  and  _368
REMARK  154  A    between atoms: _367  and  _370
REMARK  155  A    between atoms: _370  and  _371
REMARK  156  A    between atoms: _374  and  _376
REMARK  157  A    between atoms: _376  and  _377
REMARK  158  A    between atoms: _376  and  _379
REMARK  159  A    between atoms: _379  and  _380
REMARK  160  A    between atoms: _383  and  _385
REMARK  161  A    between atoms: _385  and  _386
REMARK  162  A    between atoms: _385  and  _388
REMARK  163  A    between atoms: _388  and  _389
REMARK  164  A    between atoms: _392  and  _394
REMARK  165  A    between atoms: _394  and  _395
REMARK  166  A    between atoms: _394  and  _397
REMARK  167  A    between atoms: _397  and  _398
REMARK  168  A    between atoms: _403  and  _404
REMARK  169  A    between atoms: _406  and  _408
REMARK  170  A    between atoms: _408  and  _409
REMARK  171  A    between atoms: _408  and  _411
REMARK  172  A    between atoms: _411  and  _412
REMARK  173  A    between atoms: _412  and  _413
REMARK  174  A    between atoms: _418  and  _420
REMARK  175  A    between atoms: _420  and  _421
REMARK  176  A    between atoms: _420  and  _423
REMARK  177  A    between atoms: _423  and  _424
REMARK  178  A    between atoms: _427  and  _429
REMARK  179  A    between atoms: _429  and  _430
REMARK  180  A    between atoms: _429  and  _432
REMARK  181  A    between atoms: _432  and  _433
REMARK  182  A    between atoms: _438  and  _439
REMARK  183  A    between atoms: _441  and  _443
REMARK  184  A    between atoms: _443  and  _444
REMARK  185  A    between atoms: _443  and  _446
REMARK  186  A    between atoms: _446  and  _447
REMARK  187  A    between atoms: _447  and  _448
REMARK  188  A    between atoms: _453  and  _455
REMARK  189  A    between atoms: _455  and  _456
REMARK  190  A    between atoms: _455  and  _458
REMARK  191  A    between atoms: _458  and  _459
REMARK  192  A    between atoms: _464  and  _466
REMARK  193  A    between atoms: _466  and  _467
REMARK  194  A    between atoms: _466  and  _469
REMARK  195  A    between atoms: _469  and  _470
REMARK  196  A    between atoms: _473  and  _475
REMARK  197  A    between atoms: _475  and  _476
REMARK  198  A    between atoms: _475  and  _478
REMARK  199  A    between atoms: _478  and  _479
REMARK  200  A    between atoms: _489  and  _491
REMARK  201  A    between atoms: _491  and  _492
REMARK  202  A    between atoms: _491  and  _494
REMARK  203  A    between atoms: _494  and  _495
REMARK  204  A    between atoms: _495  and  _496
REMARK  205  A    between atoms: _501  and  _503
REMARK  206  A    between atoms: _503  and  _504
REMARK  207  A    between atoms: _503  and  _506
REMARK  208  A    between atoms: _506  and  _507
REMARK  209  A    between atoms: _509  and  _511
REMARK  210  A    between atoms: _511  and  _512
REMARK  211  A    between atoms: _511  and  _514
REMARK  212  A    between atoms: _514  and  _515
REMARK  213  A    between atoms: _518  and  _520
REMARK  214  A    between atoms: _520  and  _521
REMARK  215  A    between atoms: _520  and  _523
REMARK  216  A    between atoms: _523  and  _524
REMARK  217  A    between atoms: _527  and  _529
REMARK  218  A    between atoms: _529  and  _530
REMARK  219  A    between atoms: _529  and  _532
REMARK  220  A    between atoms: _532  and  _533
REMARK  221  A    between atoms: _536  and  _538
REMARK  222  A    between atoms: _538  and  _539
REMARK  223  A    between atoms: _538  and  _541
REMARK  224  A    between atoms: _541  and  _542
REMARK  225  A    between atoms: _545  and  _547
REMARK  226  A    between atoms: _547  and  _548
REMARK  227  A    between atoms: _550  and  _552
REMARK  228  A    between atoms: _552  and  _553
REMARK  229  A    between atoms: _552  and  _555
REMARK  230  A    between atoms: _555  and  _556
REMARK                            x       y       z     vdW  Elec       q    Type
REMARK                         _______ _______ _______ _____ _____    ______ ____
ROOT
ATOM      1  O   HOH     1      25.131  17.205  50.678  0.00  0.00    +0.000 OA
ENDROOT
TORSDOF 0
REMARK  Name = ../refined-set-2016/3fv3/3fv3_pocket.pdb
REMARK  230 active torsions:
REMARK  status: ('A' for Active; 'I' for Inactive)
REMARK    1  A    between atoms: _1  and  _3
REMARK    2  A    between atoms: _3  and  _4
REMARK    3  A    between atoms: _7  and  _8
REMARK    4  A    between atoms: _13  and  _15
REMARK    5  A    between atoms: _15  and  _16
REMARK    6  A    between atoms: _15  and  _18
REMARK    7  A    between atoms: _18  and  _19
REMARK    8  A    between atoms: _21  and  _23
REMARK    9  A    between atoms: _23  and  _24
REMARK   10  A    between atoms: _23  and  _26
REMARK   11  A    between atoms: _26  and  _27
REMARK   12  A    between atoms: _32  and  _33
REMARK   13  A    between atoms: _35  and  _37
REMARK   14  A    between atoms: _37  and  _38
REMARK   15  A    between atoms: _37  and  _40
REMARK   16  A    between atoms: _40  and  _41
REMARK   17  A    between atoms: _44  and  _46
REMARK   18  A    between atoms: _46  and  _47
REMARK   19  A    between atoms: _46  and  _49
REMARK   20  A    between atoms: _49  and  _50
REMARK   21  A    between atoms: _53  and  _55
REMARK   22  A    between atoms: _55  and  _56
REMARK   23  A    between atoms: _55  and  _58
REMARK   24  A    between atoms: _58  and  _59
REMARK   25  A    between atoms: _62  and  _64
REMARK   26  A    between atoms: _64  and  _65
REMARK   27  A    between atoms: _64  and  _67
REMARK   28  A    between atoms: _67  and  _68
REMARK   29  A    between atoms: _71  and  _73
REMARK   30  A    between atoms: _73  and  _74
REMARK   31  A    between atoms: _76  and  _78
REMARK   32  A    between atoms: _78  and  _79
REMARK   33  A    between atoms: _78  and  _81
REMARK   34  A    between atoms: _81  and  _82
REMARK   35  A    between atoms: _84  and  _86
REMARK   36  A    between atoms: _86  and  _87
REMARK   37  A    between atoms: _86  and  _89
REMARK   38  A    between atoms: _89  and  _90
REMARK   39  A    between atoms: _92  and  _94
REMARK   40  A    between atoms: _94  and  _95
REMARK   41  A    between atoms: _94  and  _97
REMARK   42  A    between atoms: _97  and  _98
REMARK   43  A    between atoms: _101  and  _103
REMARK   44  A    between atoms: _103  and  _104
REMARK   45  A    between atoms: _103  and  _106
REMARK   46  A    between atoms: _106  and  _107
REMARK   47  A    between atoms: _117  and  _119
REMARK   48  A    between atoms: _119  and  _120
REMARK   49  A    between atoms: _119  and  _122
REMARK   50  A    between atoms: _122  and  _123
REMARK   51  A    between atoms: _126  and  _128
REMARK   52  A    between atoms: _128  and  _129
REMARK   53  A    between atoms: _128  and  _131
REMARK   54  A    between atoms: _131  and  _132
REMARK   55  A    between atoms: _132  and  _133
REMARK   56  A    between atoms: _133  and  _134
REMARK   57  A    between atoms: _143  and  _145
REMARK   58  A    between atoms: _145  and  _146
REMARK   59  A    between atoms: _145  and  _148
REMARK   60  A    between atoms: _148  and  _149
REMARK   61  A    between atoms: _154  and  _155
REMARK   62  A    between atoms: _157  and  _159
REMARK   63  A    between atoms: _159  and  _160
REMARK   64  A    between atoms: _162  and  _164
REMARK   65  A    between atoms: _164  and  _165
REMARK   66  A    between atoms: _164  and  _167
REMARK   67  A    between atoms: _167  and  _168
REMARK   68  A    between atoms: _171  and  _173
REMARK   69  A    between atoms: _173  and  _174
REMARK   70  A    between atoms: _176  and  _178
REMARK   71  A    between atoms: _178  and  _179
REMARK   72  A    between atoms: _178  and  _181
REMARK   73  A    between atoms: _181  and  _182
REMARK   74  A    between atoms: _184  and  _186
REMARK   75  A    between atoms: _186  and  _187
REMARK   76  A    between atoms: _186  and  _189
REMARK   77  A    between atoms: _189  and  _190
REMARK   78  A    between atoms: _193  and  _195
REMARK   79  A    between atoms: _195  and  _196
REMARK   80  A    between atoms: _195  and  _198
REMARK   81  A    between atoms: _198  and  _199
REMARK   82  A    between atoms: _201  and  _203
REMARK   83  A    between atoms: _203  and  _204
REMARK   84  A    between atoms: _203  and  _206
REMARK   85  A    between atoms: _209  and  _211
REMARK   86  A    between atoms: _211  and  _212
REMARK   87  A    between atoms: _211  and  _214
REMARK   88  A    between atoms: _214  and  _215
REMARK   89  A    between atoms: _218  and  _220
REMARK   90  A    between atoms: _220  and  _221
REMARK   91  A    between atoms: _220  and  _223
REMARK   92  A    between atoms: _223  and  _224
REMARK   93  A    between atoms: _224  and  _225
REMARK   94  A    between atoms: _230  and  _232
REMARK   95  A    between atoms: _232  and  _233
REMARK   96  A    between atoms: _235  and  _237
REMARK   97  A    between atoms: _237  and  _238
REMARK   98  A    between atoms: _237  and  _240
REMARK   99  A    between atoms: _240  and  _241
REMARK  100  A    between atoms: _244  and  _246
REMARK  101  A    between atoms: _246  and  _247
REMARK  102  A    between atoms: _246  and  _249
REMARK  103  A    between atoms: _249  and  _250
REMARK  104  A    between atoms: _253  and  _255
REMARK  105  A    between atoms: _255  and  _256
REMARK  106  A    between atoms: _255  and  _258
REMARK  107  A    between atoms: _258  and  _259
REMARK  108  A    between atoms: _262  and  _264
REMARK  109  A    between atoms: _264  and  _265
REMARK  110  A    between atoms: _264  and  _267
REMARK  111  A    between atoms: _267  and  _268
REMARK  112  A    between atoms: _273  and  _275
REMARK  113  A    between atoms: _275  and  _276
REMARK  114  A    between atoms: _275  and  _278
REMARK  115  A    between atoms: _278  and  _279
REMARK  116  A    between atoms: _279  and  _280
REMARK  117  A    between atoms: _283  and  _285
REMARK  118  A    between atoms: _285  and  _286
REMARK  119  A    between atoms: _289  and  _291
REMARK  120  A    between atoms: _291  and  _292
REMARK  121  A    between atoms: _291  and  _294
REMARK  122  A    between atoms: _294  and  _295
REMARK  123  A    between atoms: _295  and  _296
REMARK  124  A    between atoms: _301  and  _303
REMARK  125  A    between atoms: _303  and  _304
REMARK  126  A    between atoms: _307  and  _309
REMARK  127  A    between atoms: _309  and  _310
REMARK  128  A    between atoms: _309  and  _312
REMARK  129  A    between atoms: _312  and  _313
REMARK  130  A    between atoms: _316  and  _318
REMARK  131  A    between atoms: _318  and  _319
REMARK  132  A    between atoms: _318  and  _321
REMARK  133  A    between atoms: _321  and  _322
REMARK  134  A    between atoms: _325  and  _327
REMARK  135  A    between atoms: _327  and  _328
REMARK  136  A    between atoms: _327  and  _330
REMARK  137  A    between atoms: _330  and  _331
REMARK  138  A    between atoms: _334  and  _336
REMARK  139  A    between atoms: _336  and  _337
REMARK  140  A    between atoms: _336  and  _339
REMARK  141  A    between atoms: _339  and  _340
REMARK  142  A    between atoms: _343  and  _345
REMARK  143  A    between atoms: _345  and  _346
REMARK  144  A    between atoms: _345  and  _348
REMARK  145  A    between atoms: _348  and  _349
REMARK  146  A    between atoms: _351  and  _353
REMARK  147  A    between atoms: _353  and  _354
REMARK  148  A    between atoms: _356  and  _358
REMARK  149  A    between atoms: _358  and  _359
REMARK  150  A    between atoms: _358  and  _361
REMARK  151  A    between atoms: _361  and  _362
REMARK  152  A    between atoms: _365  and  _367
REMARK  153  A    between atoms: _367  and  _368
REMARK  154  A    between atoms: _367  and  _370
REMARK  155  A    between atoms: _370  and  _371
REMARK  156  A    between atoms: _374  and  _376
REMARK  157  A    between atoms: _376  and  _377
REMARK  158  A    between atoms: _376  and  _379
REMARK  159  A    between atoms: _379  and  _380
REMARK  160  A    between atoms: _383  and  _385
REMARK  161  A    between atoms: _385  and  _386
REMARK  162  A    between atoms: _385  and  _388
REMARK  163  A    between atoms: _388  and  _389
REMARK  164  A    between atoms: _392  and  _394
REMARK  165  A    between atoms: _394  and  _395
REMARK  166  A    between atoms: _394  and  _397
REMARK  167  A    between atoms: _397  and  _398
REMARK  168  A    between atoms: _403  and  _404
REMARK  169  A    between atoms: _406  and  _408
REMARK  170  A    between atoms: _408  and  _409
REMARK  171  A    between atoms: _408  and  _411
REMARK  172  A    between atoms: _411  and  _412
REMARK  173  A    between atoms: _412  and  _413
REMARK  174  A    between atoms: _418  and  _420
REMARK  175  A    between atoms: _420  and  _421
REMARK  176  A    between atoms: _420  and  _423
REMARK  177  A    between atoms: _423  and  _424
REMARK  178  A    between atoms: _427  and  _429
REMARK  179  A    between atoms: _429  and  _430
REMARK  180  A    between atoms: _429  and  _432
REMARK  181  A    between atoms: _432  and  _433
REMARK  182  A    between atoms: _438  and  _439
REMARK  183  A    between atoms: _441  and  _443
REMARK  184  A    between atoms: _443  and  _444
REMARK  185  A    between atoms: _443  and  _446
REMARK  186  A    between atoms: _446  and  _447
REMARK  187  A    between atoms: _447  and  _448
REMARK  188  A    between atoms: _453  and  _455
REMARK  189  A    between atoms: _455  and  _456
REMARK  190  A    between atoms: _455  and  _458
REMARK  191  A    between atoms: _458  and  _459
REMARK  192  A    between atoms: _464  and  _466
REMARK  193  A    between atoms: _466  and  _467
REMARK  194  A    between atoms: _466  and  _469
REMARK  195  A    between atoms: _469  and  _470
REMARK  196  A    between atoms: _473  and  _475
REMARK  197  A    between atoms: _475  and  _476
REMARK  198  A    between atoms: _475  and  _478
REMARK  199  A    between atoms: _478  and  _479
REMARK  200  A    between atoms: _489  and  _491
REMARK  201  A    between atoms: _491  and  _492
REMARK  202  A    between atoms: _491  and  _494
REMARK  203  A    between atoms: _494  and  _495
REMARK  204  A    between atoms: _495  and  _496
REMARK  205  A    between atoms: _501  and  _503
REMARK  206  A    between atoms: _503  and  _504
REMARK  207  A    between atoms: _503  and  _506
REMARK  208  A    between atoms: _506  and  _507
REMARK  209  A    between atoms: _509  and  _511
REMARK  210  A    between atoms: _511  and  _512
REMARK  211  A    between atoms: _511  and  _514
REMARK  212  A    between atoms: _514  and  _515
REMARK  213  A    between atoms: _518  and  _520
REMARK  214  A    between atoms: _520  and  _521
REMARK  215  A    between atoms: _520  and  _523
REMARK  216  A    between atoms: _523  and  _524
REMARK  217  A    between atoms: _527  and  _529
REMARK  218  A    between atoms: _529  and  _530
REMARK  219  A    between atoms: _529  and  _532
REMARK  220  A    between atoms: _532  and  _533
REMARK  221  A    between atoms: _536  and  _538
REMARK  222  A    between atoms: _538  and  _539
REMARK  223  A    between atoms: _538  and  _541
REMARK  224  A    between atoms: _541  and  _542
REMARK  225  A    between atoms: _545  and  _547
REMARK  226  A    between atoms: _547  and  _548
REMARK  227  A    between atoms: _550  and  _552
REMARK  228  A    between atoms: _552  and  _553
REMARK  229  A    between atoms: _552  and  _555
REMARK  230  A    between atoms: _555  and  _556
REMARK                            x       y       z     vdW  Elec       q    Type
REMARK                         _______ _______ _______ _____ _____    ______ ____
ROOT
ATOM      1  O   HOH     1      14.511  32.484  62.593  0.00  0.00    +0.000 OA
ENDROOT
TORSDOF 0
REMARK  Name = ../refined-set-2016/3fv3/3fv3_pocket.pdb
REMARK  230 active torsions:
REMARK  status: ('A' for Active; 'I' for Inactive)
REMARK    1  A    between atoms: _1  and  _3
REMARK    2  A    between atoms: _3  and  _4
REMARK    3  A    between atoms: _7  and  _8
REMARK    4  A    between atoms: _13  and  _15
REMARK    5  A    between atoms: _15  and  _16
REMARK    6  A    between atoms: _15  and  _18
REMARK    7  A    between atoms: _18  and  _19
REMARK    8  A    between atoms: _21  and  _23
REMARK    9  A    between atoms: _23  and  _24
REMARK   10  A    between atoms: _23  and  _26
REMARK   11  A    between atoms: _26  and  _27
REMARK   12  A    between atoms: _32  and  _33
REMARK   13  A    between atoms: _35  and  _37
REMARK   14  A    between atoms: _37  and  _38
REMARK   15  A    between atoms: _37  and  _40
REMARK   16  A    between atoms: _40  and  _41
REMARK   17  A    between atoms: _44  and  _46
REMARK   18  A    between atoms: _46  and  _47
REMARK   19  A    between atoms: _46  and  _49
REMARK   20  A    between atoms: _49  and  _50
REMARK   21  A    between atoms: _53  and  _55
REMARK   22  A    between atoms: _55  and  _56
REMARK   23  A    between atoms: _55  and  _58
REMARK   24  A    between atoms: _58  and  _59
REMARK   25  A    between atoms: _62  and  _64
REMARK   26  A    between atoms: _64  and  _65
REMARK   27  A    between atoms: _64  and  _67
REMARK   28  A    between atoms: _67  and  _68
REMARK   29  A    between atoms: _71  and  _73
REMARK   30  A    between atoms: _73  and  _74
REMARK   31  A    between atoms: _76  and  _78
REMARK   32  A    between atoms: _78  and  _79
REMARK   33  A    between atoms: _78  and  _81
REMARK   34  A    between atoms: _81  and  _82
REMARK   35  A    between atoms: _84  and  _86
REMARK   36  A    between atoms: _86  and  _87
REMARK   37  A    between atoms: _86  and  _89
REMARK   38  A    between atoms: _89  and  _90
REMARK   39  A    between atoms: _92  and  _94
REMARK   40  A    between atoms: _94  and  _95
REMARK   41  A    between atoms: _94  and  _97
REMARK   42  A    between atoms: _97  and  _98
REMARK   43  A    between atoms: _101  and  _103
REMARK   44  A    between atoms: _103  and  _104
REMARK   45  A    between atoms: _103  and  _106
REMARK   46  A    between atoms: _106  and  _107
REMARK   47  A    between atoms: _117  and  _119
REMARK   48  A    between atoms: _119  and  _120
REMARK   49  A    between atoms: _119  and  _122
REMARK   50  A    between atoms: _122  and  _123
REMARK   51  A    between atoms: _126  and  _128
REMARK   52  A    between atoms: _128  and  _129
REMARK   53  A    between atoms: _128  and  _131
REMARK   54  A    between atoms: _131  and  _132
REMARK   55  A    between atoms: _132  and  _133
REMARK   56  A    between atoms: _133  and  _134
REMARK   57  A    between atoms: _143  and  _145
REMARK   58  A    between atoms: _145  and  _146
REMARK   59  A    between atoms: _145  and  _148
REMARK   60  A    between atoms: _148  and  _149
REMARK   61  A    between atoms: _154  and  _155
REMARK   62  A    between atoms: _157  and  _159
REMARK   63  A    between atoms: _159  and  _160
REMARK   64  A    between atoms: _162  and  _164
REMARK   65  A    between atoms: _164  and  _165
REMARK   66  A    between atoms: _164  and  _167
REMARK   67  A    between atoms: _167  and  _168
REMARK   68  A    between atoms: _171  and  _173
REMARK   69  A    between atoms: _173  and  _174
REMARK   70  A    between atoms: _176  and  _178
REMARK   71  A    between atoms: _178  and  _179
REMARK   72  A    between atoms: _178  and  _181
REMARK   73  A    between atoms: _181  and  _182
REMARK   74  A    between atoms: _184  and  _186
REMARK   75  A    between atoms: _186  and  _187
REMARK   76  A    between atoms: _186  and  _189
REMARK   77  A    between atoms: _189  and  _190
REMARK   78  A    between atoms: _193  and  _195
REMARK   79  A    between atoms: _195  and  _196
REMARK   80  A    between atoms: _195  and  _198
REMARK   81  A    between atoms: _198  and  _199
REMARK   82  A    between atoms: _201  and  _203
REMARK   83  A    between atoms: _203  and  _204
REMARK   84  A    between atoms: _203  and  _206
REMARK   85  A    between atoms: _209  and  _211
REMARK   86  A    between atoms: _211  and  _212
REMARK   87  A    between atoms: _211  and  _214
REMARK   88  A    between atoms: _214  and  _215
REMARK   89  A    between atoms: _218  and  _220
REMARK   90  A    between atoms: _220  and  _221
REMARK   91  A    between atoms: _220  and  _223
REMARK   92  A    between atoms: _223  and  _224
REMARK   93  A    between atoms: _224  and  _225
REMARK   94  A    between atoms: _230  and  _232
REMARK   95  A    between atoms: _232  and  _233
REMARK   96  A    between atoms: _235  and  _237
REMARK   97  A    between atoms: _237  and  _238
REMARK   98  A    between atoms: _237  and  _240
REMARK   99  A    between atoms: _240  and  _241
REMARK  100  A    between atoms: _244  and  _246
REMARK  101  A    between atoms: _246  and  _247
REMARK  102  A    between atoms: _246  and  _249
REMARK  103  A    between atoms: _249  and  _250
REMARK  104  A    between atoms: _253  and  _255
REMARK  105  A    between atoms: _255  and  _256
REMARK  106  A    between atoms: _255  and  _258
REMARK  107  A    between atoms: _258  and  _259
REMARK  108  A    between atoms: _262  and  _264
REMARK  109  A    between atoms: _264  and  _265
REMARK  110  A    between atoms: _264  and  _267
REMARK  111  A    between atoms: _267  and  _268
REMARK  112  A    between atoms: _273  and  _275
REMARK  113  A    between atoms: _275  and  _276
REMARK  114  A    between atoms: _275  and  _278
REMARK  115  A    between atoms: _278  and  _279
REMARK  116  A    between atoms: _279  and  _280
REMARK  117  A    between atoms: _283  and  _285
REMARK  118  A    between atoms: _285  and  _286
REMARK  119  A    between atoms: _289  and  _291
REMARK  120  A    between atoms: _291  and  _292
REMARK  121  A    between atoms: _291  and  _294
REMARK  122  A    between atoms: _294  and  _295
REMARK  123  A    between atoms: _295  and  _296
REMARK  124  A    between atoms: _301  and  _303
REMARK  125  A    between atoms: _303  and  _304
REMARK  126  A    between atoms: _307  and  _309
REMARK  127  A    between atoms: _309  and  _310
REMARK  128  A    between atoms: _309  and  _312
REMARK  129  A    between atoms: _312  and  _313
REMARK  130  A    between atoms: _316  and  _318
REMARK  131  A    between atoms: _318  and  _319
REMARK  132  A    between atoms: _318  and  _321
REMARK  133  A    between atoms: _321  and  _322
REMARK  134  A    between atoms: _325  and  _327
REMARK  135  A    between atoms: _327  and  _328
REMARK  136  A    between atoms: _327  and  _330
REMARK  137  A    between atoms: _330  and  _331
REMARK  138  A    between atoms: _334  and  _336
REMARK  139  A    between atoms: _336  and  _337
REMARK  140  A    between atoms: _336  and  _339
REMARK  141  A    between atoms: _339  and  _340
REMARK  142  A    between atoms: _343  and  _345
REMARK  143  A    between atoms: _345  and  _346
REMARK  144  A    between atoms: _345  and  _348
REMARK  145  A    between atoms: _348  and  _349
REMARK  146  A    between atoms: _351  and  _353
REMARK  147  A    between atoms: _353  and  _354
REMARK  148  A    between atoms: _356  and  _358
REMARK  149  A    between atoms: _358  and  _359
REMARK  150  A    between atoms: _358  and  _361
REMARK  151  A    between atoms: _361  and  _362
REMARK  152  A    between atoms: _365  and  _367
REMARK  153  A    between atoms: _367  and  _368
REMARK  154  A    between atoms: _367  and  _370
REMARK  155  A    between atoms: _370  and  _371
REMARK  156  A    between atoms: _374  and  _376
REMARK  157  A    between atoms: _376  and  _377
REMARK  158  A    between atoms: _376  and  _379
REMARK  159  A    between atoms: _379  and  _380
REMARK  160  A    between atoms: _383  and  _385
REMARK  161  A    between atoms: _385  and  _386
REMARK  162  A    between atoms: _385  and  _388
REMARK  163  A    between atoms: _388  and  _389
REMARK  164  A    between atoms: _392  and  _394
REMARK  165  A    between atoms: _394  and  _395
REMARK  166  A    between atoms: _394  and  _397
REMARK  167  A    between atoms: _397  and  _398
REMARK  168  A    between atoms: _403  and  _404
REMARK  169  A    between atoms: _406  and  _408
REMARK  170  A    between atoms: _408  and  _409
REMARK  171  A    between atoms: _408  and  _411
REMARK  172  A    between atoms: _411  and  _412
REMARK  173  A    between atoms: _412  and  _413
REMARK  174  A    between atoms: _418  and  _420
REMARK  175  A    between atoms: _420  and  _421
REMARK  176  A    between atoms: _420  and  _423
REMARK  177  A    between atoms: _423  and  _424
REMARK  178  A    between atoms: _427  and  _429
REMARK  179  A    between atoms: _429  and  _430
REMARK  180  A    between atoms: _429  and  _432
REMARK  181  A    between atoms: _432  and  _433
REMARK  182  A    between atoms: _438  and  _439
REMARK  183  A    between atoms: _441  and  _443
REMARK  184  A    between atoms: _443  and  _444
REMARK  185  A    between atoms: _443  and  _446
REMARK  186  A    between atoms: _446  and  _447
REMARK  187  A    between atoms: _447  and  _448
REMARK  188  A    between atoms: _453  and  _455
REMARK  189  A    between atoms: _455  and  _456
REMARK  190  A    between atoms: _455  and  _458
REMARK  191  A    between atoms: _458  and  _459
REMARK  192  A    between atoms: _464  and  _466
REMARK  193  A    between atoms: _466  and  _467
REMARK  194  A    between atoms: _466  and  _469
REMARK  195  A    between atoms: _469  and  _470
REMARK  196  A    between atoms: _473  and  _475
REMARK  197  A    between atoms: _475  and  _476
REMARK  198  A    between atoms: _475  and  _478
REMARK  199  A    between atoms: _478  and  _479
REMARK  200  A    between atoms: _489  and  _491
REMARK  201  A    between atoms: _491  and  _492
REMARK  202  A    between atoms: _491  and  _494
REMARK  203  A    between atoms: _494  and  _495
REMARK  204  A    between atoms: _495  and  _496
REMARK  205  A    between atoms: _501  and  _503
REMARK  206  A    between atoms: _503  and  _504
REMARK  207  A    between atoms: _503  and  _506
REMARK  208  A    between atoms: _506  and  _507
REMARK  209  A    between atoms: _509  and  _511
REMARK  210  A    between atoms: _511  and  _512
REMARK  211  A    between atoms: _511  and  _514
REMARK  212  A    between atoms: _514  and  _515
REMARK  213  A    between atoms: _518  and  _520
REMARK  214  A    between atoms: _520  and  _521
REMARK  215  A    between atoms: _520  and  _523
REMARK  216  A    between atoms: _523  and  _524
REMARK  217  A    between atoms: _527  and  _529
REMARK  218  A    between atoms: _529  and  _530
REMARK  219  A    between atoms: _529  and  _532
REMARK  220  A    between atoms: _532  and  _533
REMARK  221  A    between atoms: _536  and  _538
REMARK  222  A    between atoms: _538  and  _539
REMARK  223  A    between atoms: _538  and  _541
REMARK  224  A    between atoms: _541  and  _542
REMARK  225  A    between atoms: _545  and  _547
REMARK  226  A    between atoms: _547  and  _548
REMARK  227  A    between atoms: _550  and  _552
REMARK  228  A    between atoms: _552  and  _553
REMARK  229  A    between atoms: _552  and  _555
REMARK  230  A    between atoms: _555  and  _556
REMARK                            x       y       z     vdW  Elec       q    Type
REMARK                         _______ _______ _______ _____ _____    ______ ____
ROOT
ATOM      1  O   HOH     1      24.083  29.310  68.767  0.00  0.00    +0.000 OA
ENDROOT
TORSDOF 0
REMARK  Name = ../refined-set-2016/3fv3/3fv3_pocket.pdb
REMARK  230 active torsions:
REMARK  status: ('A' for Active; 'I' for Inactive)
REMARK    1  A    between atoms: _1  and  _3
REMARK    2  A    between atoms: _3  and  _4
REMARK    3  A    between atoms: _7  and  _8
REMARK    4  A    between atoms: _13  and  _15
REMARK    5  A    between atoms: _15  and  _16
REMARK    6  A    between atoms: _15  and  _18
REMARK    7  A    between atoms: _18  and  _19
REMARK    8  A    between atoms: _21  and  _23
REMARK    9  A    between atoms: _23  and  _24
REMARK   10  A    between atoms: _23  and  _26
REMARK   11  A    between atoms: _26  and  _27
REMARK   12  A    between atoms: _32  and  _33
REMARK   13  A    between atoms: _35  and  _37
REMARK   14  A    between atoms: _37  and  _38
REMARK   15  A    between atoms: _37  and  _40
REMARK   16  A    between atoms: _40  and  _41
REMARK   17  A    between atoms: _44  and  _46
REMARK   18  A    between atoms: _46  and  _47
REMARK   19  A    between atoms: _46  and  _49
REMARK   20  A    between atoms: _49  and  _50
REMARK   21  A    between atoms: _53  and  _55
REMARK   22  A    between atoms: _55  and  _56
REMARK   23  A    between atoms: _55  and  _58
REMARK   24  A    between atoms: _58  and  _59
REMARK   25  A    between atoms: _62  and  _64
REMARK   26  A    between atoms: _64  and  _65
REMARK   27  A    between atoms: _64  and  _67
REMARK   28  A    between atoms: _67  and  _68
REMARK   29  A    between atoms: _71  and  _73
REMARK   30  A    between atoms: _73  and  _74
REMARK   31  A    between atoms: _76  and  _78
REMARK   32  A    between atoms: _78  and  _79
REMARK   33  A    between atoms: _78  and  _81
REMARK   34  A    between atoms: _81  and  _82
REMARK   35  A    between atoms: _84  and  _86
REMARK   36  A    between atoms: _86  and  _87
REMARK   37  A    between atoms: _86  and  _89
REMARK   38  A    between atoms: _89  and  _90
REMARK   39  A    between atoms: _92  and  _94
REMARK   40  A    between atoms: _94  and  _95
REMARK   41  A    between atoms: _94  and  _97
REMARK   42  A    between atoms: _97  and  _98
REMARK   43  A    between atoms: _101  and  _103
REMARK   44  A    between atoms: _103  and  _104
REMARK   45  A    between atoms: _103  and  _106
REMARK   46  A    between atoms: _106  and  _107
REMARK   47  A    between atoms: _117  and  _119
REMARK   48  A    between atoms: _119  and  _120
REMARK   49  A    between atoms: _119  and  _122
REMARK   50  A    between atoms: _122  and  _123
REMARK   51  A    between atoms: _126  and  _128
REMARK   52  A    between atoms: _128  and  _129
REMARK   53  A    between atoms: _128  and  _131
REMARK   54  A    between atoms: _131  and  _132
REMARK   55  A    between atoms: _132  and  _133
REMARK   56  A    between atoms: _133  and  _134
REMARK   57  A    between atoms: _143  and  _145
REMARK   58  A    between atoms: _145  and  _146
REMARK   59  A    between atoms: _145  and  _148
REMARK   60  A    between atoms: _148  and  _149
REMARK   61  A    between atoms: _154  and  _155
REMARK   62  A    between atoms: _157  and  _159
REMARK   63  A    between atoms: _159  and  _160
REMARK   64  A    between atoms: _162  and  _164
REMARK   65  A    between atoms: _164  and  _165
REMARK   66  A    between atoms: _164  and  _167
REMARK   67  A    between atoms: _167  and  _168
REMARK   68  A    between atoms: _171  and  _173
REMARK   69  A    between atoms: _173  and  _174
REMARK   70  A    between atoms: _176  and  _178
REMARK   71  A    between atoms: _178  and  _179
REMARK   72  A    between atoms: _178  and  _181
REMARK   73  A    between atoms: _181  and  _182
REMARK   74  A    between atoms: _184  and  _186
REMARK   75  A    between atoms: _186  and  _187
REMARK   76  A    between atoms: _186  and  _189
REMARK   77  A    between atoms: _189  and  _190
REMARK   78  A    between atoms: _193  and  _195
REMARK   79  A    between atoms: _195  and  _196
REMARK   80  A    between atoms: _195  and  _198
REMARK   81  A    between atoms: _198  and  _199
REMARK   82  A    between atoms: _201  and  _203
REMARK   83  A    between atoms: _203  and  _204
REMARK   84  A    between atoms: _203  and  _206
REMARK   85  A    between atoms: _209  and  _211
REMARK   86  A    between atoms: _211  and  _212
REMARK   87  A    between atoms: _211  and  _214
REMARK   88  A    between atoms: _214  and  _215
REMARK   89  A    between atoms: _218  and  _220
REMARK   90  A    between atoms: _220  and  _221
REMARK   91  A    between atoms: _220  and  _223
REMARK   92  A    between atoms: _223  and  _224
REMARK   93  A    between atoms: _224  and  _225
REMARK   94  A    between atoms: _230  and  _232
REMARK   95  A    between atoms: _232  and  _233
REMARK   96  A    between atoms: _235  and  _237
REMARK   97  A    between atoms: _237  and  _238
REMARK   98  A    between atoms: _237  and  _240
REMARK   99  A    between atoms: _240  and  _241
REMARK  100  A    between atoms: _244  and  _246
REMARK  101  A    between atoms: _246  and  _247
REMARK  102  A    between atoms: _246  and  _249
REMARK  103  A    between atoms: _249  and  _250
REMARK  104  A    between atoms: _253  and  _255
REMARK  105  A    between atoms: _255  and  _256
REMARK  106  A    between atoms: _255  and  _258
REMARK  107  A    between atoms: _258  and  _259
REMARK  108  A    between atoms: _262  and  _264
REMARK  109  A    between atoms: _264  and  _265
REMARK  110  A    between atoms: _264  and  _267
REMARK  111  A    between atoms: _267  and  _268
REMARK  112  A    between atoms: _273  and  _275
REMARK  113  A    between atoms: _275  and  _276
REMARK  114  A    between atoms: _275  and  _278
REMARK  115  A    between atoms: _278  and  _279
REMARK  116  A    between atoms: _279  and  _280
REMARK  117  A    between atoms: _283  and  _285
REMARK  118  A    between atoms: _285  and  _286
REMARK  119  A    between atoms: _289  and  _291
REMARK  120  A    between atoms: _291  and  _292
REMARK  121  A    between atoms: _291  and  _294
REMARK  122  A    between atoms: _294  and  _295
REMARK  123  A    between atoms: _295  and  _296
REMARK  124  A    between atoms: _301  and  _303
REMARK  125  A    between atoms: _303  and  _304
REMARK  126  A    between atoms: _307  and  _309
REMARK  127  A    between atoms: _309  and  _310
REMARK  128  A    between atoms: _309  and  _312
REMARK  129  A    between atoms: _312  and  _313
REMARK  130  A    between atoms: _316  and  _318
REMARK  131  A    between atoms: _318  and  _319
REMARK  132  A    between atoms: _318  and  _321
REMARK  133  A    between atoms: _321  and  _322
REMARK  134  A    between atoms: _325  and  _327
REMARK  135  A    between atoms: _327  and  _328
REMARK  136  A    between atoms: _327  and  _330
REMARK  137  A    between atoms: _330  and  _331
REMARK  138  A    between atoms: _334  and  _336
REMARK  139  A    between atoms: _336  and  _337
REMARK  140  A    between atoms: _336  and  _339
REMARK  141  A    between atoms: _339  and  _340
REMARK  142  A    between atoms: _343  and  _345
REMARK  143  A    between atoms: _345  and  _346
REMARK  144  A    between atoms: _345  and  _348
REMARK  145  A    between atoms: _348  and  _349
REMARK  146  A    between atoms: _351  and  _353
REMARK  147  A    between atoms: _353  and  _354
REMARK  148  A    between atoms: _356  and  _358
REMARK  149  A    between atoms: _358  and  _359
REMARK  150  A    between atoms: _358  and  _361
REMARK  151  A    between atoms: _361  and  _362
REMARK  152  A    between atoms: _365  and  _367
REMARK  153  A    between atoms: _367  and  _368
REMARK  154  A    between atoms: _367  and  _370
REMARK  155  A    between atoms: _370  and  _371
REMARK  156  A    between atoms: _374  and  _376
REMARK  157  A    between atoms: _376  and  _377
REMARK  158  A    between atoms: _376  and  _379
REMARK  159  A    between atoms: _379  and  _380
REMARK  160  A    between atoms: _383  and  _385
REMARK  161  A    between atoms: _385  and  _386
REMARK  162  A    between atoms: _385  and  _388
REMARK  163  A    between atoms: _388  and  _389
REMARK  164  A    between atoms: _392  and  _394
REMARK  165  A    between atoms: _394  and  _395
REMARK  166  A    between atoms: _394  and  _397
REMARK  167  A    between atoms: _397  and  _398
REMARK  168  A    between atoms: _403  and  _404
REMARK  169  A    between atoms: _406  and  _408
REMARK  170  A    between atoms: _408  and  _409
REMARK  171  A    between atoms: _408  and  _411
REMARK  172  A    between atoms: _411  and  _412
REMARK  173  A    between atoms: _412  and  _413
REMARK  174  A    between atoms: _418  and  _420
REMARK  175  A    between atoms: _420  and  _421
REMARK  176  A    between atoms: _420  and  _423
REMARK  177  A    between atoms: _423  and  _424
REMARK  178  A    between atoms: _427  and  _429
REMARK  179  A    between atoms: _429  and  _430
REMARK  180  A    between atoms: _429  and  _432
REMARK  181  A    between atoms: _432  and  _433
REMARK  182  A    between atoms: _438  and  _439
REMARK  183  A    between atoms: _441  and  _443
REMARK  184  A    between atoms: _443  and  _444
REMARK  185  A    between atoms: _443  and  _446
REMARK  186  A    between atoms: _446  and  _447
REMARK  187  A    between atoms: _447  and  _448
REMARK  188  A    between atoms: _453  and  _455
REMARK  189  A    between atoms: _455  and  _456
REMARK  190  A    between atoms: _455  and  _458
REMARK  191  A    between atoms: _458  and  _459
REMARK  192  A    between atoms: _464  and  _466
REMARK  193  A    between atoms: _466  and  _467
REMARK  194  A    between atoms: _466  and  _469
REMARK  195  A    between atoms: _469  and  _470
REMARK  196  A    between atoms: _473  and  _475
REMARK  197  A    between atoms: _475  and  _476
REMARK  198  A    between atoms: _475  and  _478
REMARK  199  A    between atoms: _478  and  _479
REMARK  200  A    between atoms: _489  and  _491
REMARK  201  A    between atoms: _491  and  _492
REMARK  202  A    between atoms: _491  and  _494
REMARK  203  A    between atoms: _494  and  _495
REMARK  204  A    between atoms: _495  and  _496
REMARK  205  A    between atoms: _501  and  _503
REMARK  206  A    between atoms: _503  and  _504
REMARK  207  A    between atoms: _503  and  _506
REMARK  208  A    between atoms: _506  and  _507
REMARK  209  A    between atoms: _509  and  _511
REMARK  210  A    between atoms: _511  and  _512
REMARK  211  A    between atoms: _511  and  _514
REMARK  212  A    between atoms: _514  and  _515
REMARK  213  A    between atoms: _518  and  _520
REMARK  214  A    between atoms: _520  and  _521
REMARK  215  A    between atoms: _520  and  _523
REMARK  216  A    between atoms: _523  and  _524
REMARK  217  A    between atoms: _527  and  _529
REMARK  218  A    between atoms: _529  and  _530
REMARK  219  A    between atoms: _529  and  _532
REMARK  220  A    between atoms: _532  and  _533
REMARK  221  A    between atoms: _536  and  _538
REMARK  222  A    between atoms: _538  and  _539
REMARK  223  A    between atoms: _538  and  _541
REMARK  224  A    between atoms: _541  and  _542
REMARK  225  A    between atoms: _545  and  _547
REMARK  226  A    between atoms: _547  and  _548
REMARK  227  A    between atoms: _550  and  _552
REMARK  228  A    between atoms: _552  and  _553
REMARK  229  A    between atoms: _552  and  _555
REMARK  230  A    between atoms: _555  and  _556
REMARK                            x       y       z     vdW  Elec       q    Type
REMARK                         _______ _______ _______ _____ _____    ______ ____
ROOT
ATOM      1  O   HOH     1      25.060  23.162  54.380  0.00  0.00    +0.000 OA
ENDROOT
TORSDOF 0
REMARK  Name = ../refined-set-2016/3fv3/3fv3_pocket.pdb
REMARK  230 active torsions:
REMARK  status: ('A' for Active; 'I' for Inactive)
REMARK    1  A    between atoms: _1  and  _3
REMARK    2  A    between atoms: _3  and  _4
REMARK    3  A    between atoms: _7  and  _8
REMARK    4  A    between atoms: _13  and  _15
REMARK    5  A    between atoms: _15  and  _16
REMARK    6  A    between atoms: _15  and  _18
REMARK    7  A    between atoms: _18  and  _19
REMARK    8  A    between atoms: _21  and  _23
REMARK    9  A    between atoms: _23  and  _24
REMARK   10  A    between atoms: _23  and  _26
REMARK   11  A    between atoms: _26  and  _27
REMARK   12  A    between atoms: _32  and  _33
REMARK   13  A    between atoms: _35  and  _37
REMARK   14  A    between atoms: _37  and  _38
REMARK   15  A    between atoms: _37  and  _40
REMARK   16  A    between atoms: _40  and  _41
REMARK   17  A    between atoms: _44  and  _46
REMARK   18  A    between atoms: _46  and  _47
REMARK   19  A    between atoms: _46  and  _49
REMARK   20  A    between atoms: _49  and  _50
REMARK   21  A    between atoms: _53  and  _55
REMARK   22  A    between atoms: _55  and  _56
REMARK   23  A    between atoms: _55  and  _58
REMARK   24  A    between atoms: _58  and  _59
REMARK   25  A    between atoms: _62  and  _64
REMARK   26  A    between atoms: _64  and  _65
REMARK   27  A    between atoms: _64  and  _67
REMARK   28  A    between atoms: _67  and  _68
REMARK   29  A    between atoms: _71  and  _73
REMARK   30  A    between atoms: _73  and  _74
REMARK   31  A    between atoms: _76  and  _78
REMARK   32  A    between atoms: _78  and  _79
REMARK   33  A    between atoms: _78  and  _81
REMARK   34  A    between atoms: _81  and  _82
REMARK   35  A    between atoms: _84  and  _86
REMARK   36  A    between atoms: _86  and  _87
REMARK   37  A    between atoms: _86  and  _89
REMARK   38  A    between atoms: _89  and  _90
REMARK   39  A    between atoms: _92  and  _94
REMARK   40  A    between atoms: _94  and  _95
REMARK   41  A    between atoms: _94  and  _97
REMARK   42  A    between atoms: _97  and  _98
REMARK   43  A    between atoms: _101  and  _103
REMARK   44  A    between atoms: _103  and  _104
REMARK   45  A    between atoms: _103  and  _106
REMARK   46  A    between atoms: _106  and  _107
REMARK   47  A    between atoms: _117  and  _119
REMARK   48  A    between atoms: _119  and  _120
REMARK   49  A    between atoms: _119  and  _122
REMARK   50  A    between atoms: _122  and  _123
REMARK   51  A    between atoms: _126  and  _128
REMARK   52  A    between atoms: _128  and  _129
REMARK   53  A    between atoms: _128  and  _131
REMARK   54  A    between atoms: _131  and  _132
REMARK   55  A    between atoms: _132  and  _133
REMARK   56  A    between atoms: _133  and  _134
REMARK   57  A    between atoms: _143  and  _145
REMARK   58  A    between atoms: _145  and  _146
REMARK   59  A    between atoms: _145  and  _148
REMARK   60  A    between atoms: _148  and  _149
REMARK   61  A    between atoms: _154  and  _155
REMARK   62  A    between atoms: _157  and  _159
REMARK   63  A    between atoms: _159  and  _160
REMARK   64  A    between atoms: _162  and  _164
REMARK   65  A    between atoms: _164  and  _165
REMARK   66  A    between atoms: _164  and  _167
REMARK   67  A    between atoms: _167  and  _168
REMARK   68  A    between atoms: _171  and  _173
REMARK   69  A    between atoms: _173  and  _174
REMARK   70  A    between atoms: _176  and  _178
REMARK   71  A    between atoms: _178  and  _179
REMARK   72  A    between atoms: _178  and  _181
REMARK   73  A    between atoms: _181  and  _182
REMARK   74  A    between atoms: _184  and  _186
REMARK   75  A    between atoms: _186  and  _187
REMARK   76  A    between atoms: _186  and  _189
REMARK   77  A    between atoms: _189  and  _190
REMARK   78  A    between atoms: _193  and  _195
REMARK   79  A    between atoms: _195  and  _196
REMARK   80  A    between atoms: _195  and  _198
REMARK   81  A    between atoms: _198  and  _199
REMARK   82  A    between atoms: _201  and  _203
REMARK   83  A    between atoms: _203  and  _204
REMARK   84  A    between atoms: _203  and  _206
REMARK   85  A    between atoms: _209  and  _211
REMARK   86  A    between atoms: _211  and  _212
REMARK   87  A    between atoms: _211  and  _214
REMARK   88  A    between atoms: _214  and  _215
REMARK   89  A    between atoms: _218  and  _220
REMARK   90  A    between atoms: _220  and  _221
REMARK   91  A    between atoms: _220  and  _223
REMARK   92  A    between atoms: _223  and  _224
REMARK   93  A    between atoms: _224  and  _225
REMARK   94  A    between atoms: _230  and  _232
REMARK   95  A    between atoms: _232  and  _233
REMARK   96  A    between atoms: _235  and  _237
REMARK   97  A    between atoms: _237  and  _238
REMARK   98  A    between atoms: _237  and  _240
REMARK   99  A    between atoms: _240  and  _241
REMARK  100  A    between atoms: _244  and  _246
REMARK  101  A    between atoms: _246  and  _247
REMARK  102  A    between atoms: _246  and  _249
REMARK  103  A    between atoms: _249  and  _250
REMARK  104  A    between atoms: _253  and  _255
REMARK  105  A    between atoms: _255  and  _256
REMARK  106  A    between atoms: _255  and  _258
REMARK  107  A    between atoms: _258  and  _259
REMARK  108  A    between atoms: _262  and  _264
REMARK  109  A    between atoms: _264  and  _265
REMARK  110  A    between atoms: _264  and  _267
REMARK  111  A    between atoms: _267  and  _268
REMARK  112  A    between atoms: _273  and  _275
REMARK  113  A    between atoms: _275  and  _276
REMARK  114  A    between atoms: _275  and  _278
REMARK  115  A    between atoms: _278  and  _279
REMARK  116  A    between atoms: _279  and  _280
REMARK  117  A    between atoms: _283  and  _285
REMARK  118  A    between atoms: _285  and  _286
REMARK  119  A    between atoms: _289  and  _291
REMARK  120  A    between atoms: _291  and  _292
REMARK  121  A    between atoms: _291  and  _294
REMARK  122  A    between atoms: _294  and  _295
REMARK  123  A    between atoms: _295  and  _296
REMARK  124  A    between atoms: _301  and  _303
REMARK  125  A    between atoms: _303  and  _304
REMARK  126  A    between atoms: _307  and  _309
REMARK  127  A    between atoms: _309  and  _310
REMARK  128  A    between atoms: _309  and  _312
REMARK  129  A    between atoms: _312  and  _313
REMARK  130  A    between atoms: _316  and  _318
REMARK  131  A    between atoms: _318  and  _319
REMARK  132  A    between atoms: _318  and  _321
REMARK  133  A    between atoms: _321  and  _322
REMARK  134  A    between atoms: _325  and  _327
REMARK  135  A    between atoms: _327  and  _328
REMARK  136  A    between atoms: _327  and  _330
REMARK  137  A    between atoms: _330  and  _331
REMARK  138  A    between atoms: _334  and  _336
REMARK  139  A    between atoms: _336  and  _337
REMARK  140  A    between atoms: _336  and  _339
REMARK  141  A    between atoms: _339  and  _340
REMARK  142  A    between atoms: _343  and  _345
REMARK  143  A    between atoms: _345  and  _346
REMARK  144  A    between atoms: _345  and  _348
REMARK  145  A    between atoms: _348  and  _349
REMARK  146  A    between atoms: _351  and  _353
REMARK  147  A    between atoms: _353  and  _354
REMARK  148  A    between atoms: _356  and  _358
REMARK  149  A    between atoms: _358  and  _359
REMARK  150  A    between atoms: _358  and  _361
REMARK  151  A    between atoms: _361  and  _362
REMARK  152  A    between atoms: _365  and  _367
REMARK  153  A    between atoms: _367  and  _368
REMARK  154  A    between atoms: _367  and  _370
REMARK  155  A    between atoms: _370  and  _371
REMARK  156  A    between atoms: _374  and  _376
REMARK  157  A    between atoms: _376  and  _377
REMARK  158  A    between atoms: _376  and  _379
REMARK  159  A    between atoms: _379  and  _380
REMARK  160  A    between atoms: _383  and  _385
REMARK  161  A    between atoms: _385  and  _386
REMARK  162  A    between atoms: _385  and  _388
REMARK  163  A    between atoms: _388  and  _389
REMARK  164  A    between atoms: _392  and  _394
REMARK  165  A    between atoms: _394  and  _395
REMARK  166  A    between atoms: _394  and  _397
REMARK  167  A    between atoms: _397  and  _398
REMARK  168  A    between atoms: _403  and  _404
REMARK  169  A    between atoms: _406  and  _408
REMARK  170  A    between atoms: _408  and  _409
REMARK  171  A    between atoms: _408  and  _411
REMARK  172  A    between atoms: _411  and  _412
REMARK  173  A    between atoms: _412  and  _413
REMARK  174  A    between atoms: _418  and  _420
REMARK  175  A    between atoms: _420  and  _421
REMARK  176  A    between atoms: _420  and  _423
REMARK  177  A    between atoms: _423  and  _424
REMARK  178  A    between atoms: _427  and  _429
REMARK  179  A    between atoms: _429  and  _430
REMARK  180  A    between atoms: _429  and  _432
REMARK  181  A    between atoms: _432  and  _433
REMARK  182  A    between atoms: _438  and  _439
REMARK  183  A    between atoms: _441  and  _443
REMARK  184  A    between atoms: _443  and  _444
REMARK  185  A    between atoms: _443  and  _446
REMARK  186  A    between atoms: _446  and  _447
REMARK  187  A    between atoms: _447  and  _448
REMARK  188  A    between atoms: _453  and  _455
REMARK  189  A    between atoms: _455  and  _456
REMARK  190  A    between atoms: _455  and  _458
REMARK  191  A    between atoms: _458  and  _459
REMARK  192  A    between atoms: _464  and  _466
REMARK  193  A    between atoms: _466  and  _467
REMARK  194  A    between atoms: _466  and  _469
REMARK  195  A    between atoms: _469  and  _470
REMARK  196  A    between atoms: _473  and  _475
REMARK  197  A    between atoms: _475  and  _476
REMARK  198  A    between atoms: _475  and  _478
REMARK  199  A    between atoms: _478  and  _479
REMARK  200  A    between atoms: _489  and  _491
REMARK  201  A    between atoms: _491  and  _492
REMARK  202  A    between atoms: _491  and  _494
REMARK  203  A    between atoms: _494  and  _495
REMARK  204  A    between atoms: _495  and  _496
REMARK  205  A    between atoms: _501  and  _503
REMARK  206  A    between atoms: _503  and  _504
REMARK  207  A    between atoms: _503  and  _506
REMARK  208  A    between atoms: _506  and  _507
REMARK  209  A    between atoms: _509  and  _511
REMARK  210  A    between atoms: _511  and  _512
REMARK  211  A    between atoms: _511  and  _514
REMARK  212  A    between atoms: _514  and  _515
REMARK  213  A    between atoms: _518  and  _520
REMARK  214  A    between atoms: _520  and  _521
REMARK  215  A    between atoms: _520  and  _523
REMARK  216  A    between atoms: _523  and  _524
REMARK  217  A    between atoms: _527  and  _529
REMARK  218  A    between atoms: _529  and  _530
REMARK  219  A    between atoms: _529  and  _532
REMARK  220  A    between atoms: _532  and  _533
REMARK  221  A    between atoms: _536  and  _538
REMARK  222  A    between atoms: _538  and  _539
REMARK  223  A    between atoms: _538  and  _541
REMARK  224  A    between atoms: _541  and  _542
REMARK  225  A    between atoms: _545  and  _547
REMARK  226  A    between atoms: _547  and  _548
REMARK  227  A    between atoms: _550  and  _552
REMARK  228  A    between atoms: _552  and  _553
REMARK  229  A    between atoms: _552  and  _555
REMARK  230  A    between atoms: _555  and  _556
REMARK                            x       y       z     vdW  Elec       q    Type
REMARK                         _______ _______ _______ _____ _____    ______ ____
ROOT
ATOM      1  O   HOH     1      16.167  23.105  64.829  0.00  0.00    +0.000 OA
ENDROOT
TORSDOF 0
REMARK  Name = ../refined-set-2016/3fv3/3fv3_pocket.pdb
REMARK  230 active torsions:
REMARK  status: ('A' for Active; 'I' for Inactive)
REMARK    1  A    between atoms: _1  and  _3
REMARK    2  A    between atoms: _3  and  _4
REMARK    3  A    between atoms: _7  and  _8
REMARK    4  A    between atoms: _13  and  _15
REMARK    5  A    between atoms: _15  and  _16
REMARK    6  A    between atoms: _15  and  _18
REMARK    7  A    between atoms: _18  and  _19
REMARK    8  A    between atoms: _21  and  _23
REMARK    9  A    between atoms: _23  and  _24
REMARK   10  A    between atoms: _23  and  _26
REMARK   11  A    between atoms: _26  and  _27
REMARK   12  A    between atoms: _32  and  _33
REMARK   13  A    between atoms: _35  and  _37
REMARK   14  A    between atoms: _37  and  _38
REMARK   15  A    between atoms: _37  and  _40
REMARK   16  A    between atoms: _40  and  _41
REMARK   17  A    between atoms: _44  and  _46
REMARK   18  A    between atoms: _46  and  _47
REMARK   19  A    between atoms: _46  and  _49
REMARK   20  A    between atoms: _49  and  _50
REMARK   21  A    between atoms: _53  and  _55
REMARK   22  A    between atoms: _55  and  _56
REMARK   23  A    between atoms: _55  and  _58
REMARK   24  A    between atoms: _58  and  _59
REMARK   25  A    between atoms: _62  and  _64
REMARK   26  A    between atoms: _64  and  _65
REMARK   27  A    between atoms: _64  and  _67
REMARK   28  A    between atoms: _67  and  _68
REMARK   29  A    between atoms: _71  and  _73
REMARK   30  A    between atoms: _73  and  _74
REMARK   31  A    between atoms: _76  and  _78
REMARK   32  A    between atoms: _78  and  _79
REMARK   33  A    between atoms: _78  and  _81
REMARK   34  A    between atoms: _81  and  _82
REMARK   35  A    between atoms: _84  and  _86
REMARK   36  A    between atoms: _86  and  _87
REMARK   37  A    between atoms: _86  and  _89
REMARK   38  A    between atoms: _89  and  _90
REMARK   39  A    between atoms: _92  and  _94
REMARK   40  A    between atoms: _94  and  _95
REMARK   41  A    between atoms: _94  and  _97
REMARK   42  A    between atoms: _97  and  _98
REMARK   43  A    between atoms: _101  and  _103
REMARK   44  A    between atoms: _103  and  _104
REMARK   45  A    between atoms: _103  and  _106
REMARK   46  A    between atoms: _106  and  _107
REMARK   47  A    between atoms: _117  and  _119
REMARK   48  A    between atoms: _119  and  _120
REMARK   49  A    between atoms: _119  and  _122
REMARK   50  A    between atoms: _122  and  _123
REMARK   51  A    between atoms: _126  and  _128
REMARK   52  A    between atoms: _128  and  _129
REMARK   53  A    between atoms: _128  and  _131
REMARK   54  A    between atoms: _131  and  _132
REMARK   55  A    between atoms: _132  and  _133
REMARK   56  A    between atoms: _133  and  _134
REMARK   57  A    between atoms: _143  and  _145
REMARK   58  A    between atoms: _145  and  _146
REMARK   59  A    between atoms: _145  and  _148
REMARK   60  A    between atoms: _148  and  _149
REMARK   61  A    between atoms: _154  and  _155
REMARK   62  A    between atoms: _157  and  _159
REMARK   63  A    between atoms: _159  and  _160
REMARK   64  A    between atoms: _162  and  _164
REMARK   65  A    between atoms: _164  and  _165
REMARK   66  A    between atoms: _164  and  _167
REMARK   67  A    between atoms: _167  and  _168
REMARK   68  A    between atoms: _171  and  _173
REMARK   69  A    between atoms: _173  and  _174
REMARK   70  A    between atoms: _176  and  _178
REMARK   71  A    between atoms: _178  and  _179
REMARK   72  A    between atoms: _178  and  _181
REMARK   73  A    between atoms: _181  and  _182
REMARK   74  A    between atoms: _184  and  _186
REMARK   75  A    between atoms: _186  and  _187
REMARK   76  A    between atoms: _186  and  _189
REMARK   77  A    between atoms: _189  and  _190
REMARK   78  A    between atoms: _193  and  _195
REMARK   79  A    between atoms: _195  and  _196
REMARK   80  A    between atoms: _195  and  _198
REMARK   81  A    between atoms: _198  and  _199
REMARK   82  A    between atoms: _201  and  _203
REMARK   83  A    between atoms: _203  and  _204
REMARK   84  A    between atoms: _203  and  _206
REMARK   85  A    between atoms: _209  and  _211
REMARK   86  A    between atoms: _211  and  _212
REMARK   87  A    between atoms: _211  and  _214
REMARK   88  A    between atoms: _214  and  _215
REMARK   89  A    between atoms: _218  and  _220
REMARK   90  A    between atoms: _220  and  _221
REMARK   91  A    between atoms: _220  and  _223
REMARK   92  A    between atoms: _223  and  _224
REMARK   93  A    between atoms: _224  and  _225
REMARK   94  A    between atoms: _230  and  _232
REMARK   95  A    between atoms: _232  and  _233
REMARK   96  A    between atoms: _235  and  _237
REMARK   97  A    between atoms: _237  and  _238
REMARK   98  A    between atoms: _237  and  _240
REMARK   99  A    between atoms: _240  and  _241
REMARK  100  A    between atoms: _244  and  _246
REMARK  101  A    between atoms: _246  and  _247
REMARK  102  A    between atoms: _246  and  _249
REMARK  103  A    between atoms: _249  and  _250
REMARK  104  A    between atoms: _253  and  _255
REMARK  105  A    between atoms: _255  and  _256
REMARK  106  A    between atoms: _255  and  _258
REMARK  107  A    between atoms: _258  and  _259
REMARK  108  A    between atoms: _262  and  _264
REMARK  109  A    between atoms: _264  and  _265
REMARK  110  A    between atoms: _264  and  _267
REMARK  111  A    between atoms: _267  and  _268
REMARK  112  A    between atoms: _273  and  _275
REMARK  113  A    between atoms: _275  and  _276
REMARK  114  A    between atoms: _275  and  _278
REMARK  115  A    between atoms: _278  and  _279
REMARK  116  A    between atoms: _279  and  _280
REMARK  117  A    between atoms: _283  and  _285
REMARK  118  A    between atoms: _285  and  _286
REMARK  119  A    between atoms: _289  and  _291
REMARK  120  A    between atoms: _291  and  _292
REMARK  121  A    between atoms: _291  and  _294
REMARK  122  A    between atoms: _294  and  _295
REMARK  123  A    between atoms: _295  and  _296
REMARK  124  A    between atoms: _301  and  _303
REMARK  125  A    between atoms: _303  and  _304
REMARK  126  A    between atoms: _307  and  _309
REMARK  127  A    between atoms: _309  and  _310
REMARK  128  A    between atoms: _309  and  _312
REMARK  129  A    between atoms: _312  and  _313
REMARK  130  A    between atoms: _316  and  _318
REMARK  131  A    between atoms: _318  and  _319
REMARK  132  A    between atoms: _318  and  _321
REMARK  133  A    between atoms: _321  and  _322
REMARK  134  A    between atoms: _325  and  _327
REMARK  135  A    between atoms: _327  and  _328
REMARK  136  A    between atoms: _327  and  _330
REMARK  137  A    between atoms: _330  and  _331
REMARK  138  A    between atoms: _334  and  _336
REMARK  139  A    between atoms: _336  and  _337
REMARK  140  A    between atoms: _336  and  _339
REMARK  141  A    between atoms: _339  and  _340
REMARK  142  A    between atoms: _343  and  _345
REMARK  143  A    between atoms: _345  and  _346
REMARK  144  A    between atoms: _345  and  _348
REMARK  145  A    between atoms: _348  and  _349
REMARK  146  A    between atoms: _351  and  _353
REMARK  147  A    between atoms: _353  and  _354
REMARK  148  A    between atoms: _356  and  _358
REMARK  149  A    between atoms: _358  and  _359
REMARK  150  A    between atoms: _358  and  _361
REMARK  151  A    between atoms: _361  and  _362
REMARK  152  A    between atoms: _365  and  _367
REMARK  153  A    between atoms: _367  and  _368
REMARK  154  A    between atoms: _367  and  _370
REMARK  155  A    between atoms: _370  and  _371
REMARK  156  A    between atoms: _374  and  _376
REMARK  157  A    between atoms: _376  and  _377
REMARK  158  A    between atoms: _376  and  _379
REMARK  159  A    between atoms: _379  and  _380
REMARK  160  A    between atoms: _383  and  _385
REMARK  161  A    between atoms: _385  and  _386
REMARK  162  A    between atoms: _385  and  _388
REMARK  163  A    between atoms: _388  and  _389
REMARK  164  A    between atoms: _392  and  _394
REMARK  165  A    between atoms: _394  and  _395
REMARK  166  A    between atoms: _394  and  _397
REMARK  167  A    between atoms: _397  and  _398
REMARK  168  A    between atoms: _403  and  _404
REMARK  169  A    between atoms: _406  and  _408
REMARK  170  A    between atoms: _408  and  _409
REMARK  171  A    between atoms: _408  and  _411
REMARK  172  A    between atoms: _411  and  _412
REMARK  173  A    between atoms: _412  and  _413
REMARK  174  A    between atoms: _418  and  _420
REMARK  175  A    between atoms: _420  and  _421
REMARK  176  A    between atoms: _420  and  _423
REMARK  177  A    between atoms: _423  and  _424
REMARK  178  A    between atoms: _427  and  _429
REMARK  179  A    between atoms: _429  and  _430
REMARK  180  A    between atoms: _429  and  _432
REMARK  181  A    between atoms: _432  and  _433
REMARK  182  A    between atoms: _438  and  _439
REMARK  183  A    between atoms: _441  and  _443
REMARK  184  A    between atoms: _443  and  _444
REMARK  185  A    between atoms: _443  and  _446
REMARK  186  A    between atoms: _446  and  _447
REMARK  187  A    between atoms: _447  and  _448
REMARK  188  A    between atoms: _453  and  _455
REMARK  189  A    between atoms: _455  and  _456
REMARK  190  A    between atoms: _455  and  _458
REMARK  191  A    between atoms: _458  and  _459
REMARK  192  A    between atoms: _464  and  _466
REMARK  193  A    between atoms: _466  and  _467
REMARK  194  A    between atoms: _466  and  _469
REMARK  195  A    between atoms: _469  and  _470
REMARK  196  A    between atoms: _473  and  _475
REMARK  197  A    between atoms: _475  and  _476
REMARK  198  A    between atoms: _475  and  _478
REMARK  199  A    between atoms: _478  and  _479
REMARK  200  A    between atoms: _489  and  _491
REMARK  201  A    between atoms: _491  and  _492
REMARK  202  A    between atoms: _491  and  _494
REMARK  203  A    between atoms: _494  and  _495
REMARK  204  A    between atoms: _495  and  _496
REMARK  205  A    between atoms: _501  and  _503
REMARK  206  A    between atoms: _503  and  _504
REMARK  207  A    between atoms: _503  and  _506
REMARK  208  A    between atoms: _506  and  _507
REMARK  209  A    between atoms: _509  and  _511
REMARK  210  A    between atoms: _511  and  _512
REMARK  211  A    between atoms: _511  and  _514
REMARK  212  A    between atoms: _514  and  _515
REMARK  213  A    between atoms: _518  and  _520
REMARK  214  A    between atoms: _520  and  _521
REMARK  215  A    between atoms: _520  and  _523
REMARK  216  A    between atoms: _523  and  _524
REMARK  217  A    between atoms: _527  and  _529
REMARK  218  A    between atoms: _529  and  _530
REMARK  219  A    between atoms: _529  and  _532
REMARK  220  A    between atoms: _532  and  _533
REMARK  221  A    between atoms: _536  and  _538
REMARK  222  A    between atoms: _538  and  _539
REMARK  223  A    between atoms: _538  and  _541
REMARK  224  A    between atoms: _541  and  _542
REMARK  225  A    between atoms: _545  and  _547
REMARK  226  A    between atoms: _547  and  _548
REMARK  227  A    between atoms: _550  and  _552
REMARK  228  A    between atoms: _552  and  _553
REMARK  229  A    between atoms: _552  and  _555
REMARK  230  A    between atoms: _555  and  _556
REMARK                            x       y       z     vdW  Elec       q    Type
REMARK                         _______ _______ _______ _____ _____    ______ ____
ROOT
ATOM      1  O   HOH     1      14.209  18.571  67.117  0.00  0.00    +0.000 OA
ENDROOT
TORSDOF 0
REMARK  Name = ../refined-set-2016/3fv3/3fv3_pocket.pdb
REMARK  230 active torsions:
REMARK  status: ('A' for Active; 'I' for Inactive)
REMARK    1  A    between atoms: _1  and  _3
REMARK    2  A    between atoms: _3  and  _4
REMARK    3  A    between atoms: _7  and  _8
REMARK    4  A    between atoms: _13  and  _15
REMARK    5  A    between atoms: _15  and  _16
REMARK    6  A    between atoms: _15  and  _18
REMARK    7  A    between atoms: _18  and  _19
REMARK    8  A    between atoms: _21  and  _23
REMARK    9  A    between atoms: _23  and  _24
REMARK   10  A    between atoms: _23  and  _26
REMARK   11  A    between atoms: _26  and  _27
REMARK   12  A    between atoms: _32  and  _33
REMARK   13  A    between atoms: _35  and  _37
REMARK   14  A    between atoms: _37  and  _38
REMARK   15  A    between atoms: _37  and  _40
REMARK   16  A    between atoms: _40  and  _41
REMARK   17  A    between atoms: _44  and  _46
REMARK   18  A    between atoms: _46  and  _47
REMARK   19  A    between atoms: _46  and  _49
REMARK   20  A    between atoms: _49  and  _50
REMARK   21  A    between atoms: _53  and  _55
REMARK   22  A    between atoms: _55  and  _56
REMARK   23  A    between atoms: _55  and  _58
REMARK   24  A    between atoms: _58  and  _59
REMARK   25  A    between atoms: _62  and  _64
REMARK   26  A    between atoms: _64  and  _65
REMARK   27  A    between atoms: _64  and  _67
REMARK   28  A    between atoms: _67  and  _68
REMARK   29  A    between atoms: _71  and  _73
REMARK   30  A    between atoms: _73  and  _74
REMARK   31  A    between atoms: _76  and  _78
REMARK   32  A    between atoms: _78  and  _79
REMARK   33  A    between atoms: _78  and  _81
REMARK   34  A    between atoms: _81  and  _82
REMARK   35  A    between atoms: _84  and  _86
REMARK   36  A    between atoms: _86  and  _87
REMARK   37  A    between atoms: _86  and  _89
REMARK   38  A    between atoms: _89  and  _90
REMARK   39  A    between atoms: _92  and  _94
REMARK   40  A    between atoms: _94  and  _95
REMARK   41  A    between atoms: _94  and  _97
REMARK   42  A    between atoms: _97  and  _98
REMARK   43  A    between atoms: _101  and  _103
REMARK   44  A    between atoms: _103  and  _104
REMARK   45  A    between atoms: _103  and  _106
REMARK   46  A    between atoms: _106  and  _107
REMARK   47  A    between atoms: _117  and  _119
REMARK   48  A    between atoms: _119  and  _120
REMARK   49  A    between atoms: _119  and  _122
REMARK   50  A    between atoms: _122  and  _123
REMARK   51  A    between atoms: _126  and  _128
REMARK   52  A    between atoms: _128  and  _129
REMARK   53  A    between atoms: _128  and  _131
REMARK   54  A    between atoms: _131  and  _132
REMARK   55  A    between atoms: _132  and  _133
REMARK   56  A    between atoms: _133  and  _134
REMARK   57  A    between atoms: _143  and  _145
REMARK   58  A    between atoms: _145  and  _146
REMARK   59  A    between atoms: _145  and  _148
REMARK   60  A    between atoms: _148  and  _149
REMARK   61  A    between atoms: _154  and  _155
REMARK   62  A    between atoms: _157  and  _159
REMARK   63  A    between atoms: _159  and  _160
REMARK   64  A    between atoms: _162  and  _164
REMARK   65  A    between atoms: _164  and  _165
REMARK   66  A    between atoms: _164  and  _167
REMARK   67  A    between atoms: _167  and  _168
REMARK   68  A    between atoms: _171  and  _173
REMARK   69  A    between atoms: _173  and  _174
REMARK   70  A    between atoms: _176  and  _178
REMARK   71  A    between atoms: _178  and  _179
REMARK   72  A    between atoms: _178  and  _181
REMARK   73  A    between atoms: _181  and  _182
REMARK   74  A    between atoms: _184  and  _186
REMARK   75  A    between atoms: _186  and  _187
REMARK   76  A    between atoms: _186  and  _189
REMARK   77  A    between atoms: _189  and  _190
REMARK   78  A    between atoms: _193  and  _195
REMARK   79  A    between atoms: _195  and  _196
REMARK   80  A    between atoms: _195  and  _198
REMARK   81  A    between atoms: _198  and  _199
REMARK   82  A    between atoms: _201  and  _203
REMARK   83  A    between atoms: _203  and  _204
REMARK   84  A    between atoms: _203  and  _206
REMARK   85  A    between atoms: _209  and  _211
REMARK   86  A    between atoms: _211  and  _212
REMARK   87  A    between atoms: _211  and  _214
REMARK   88  A    between atoms: _214  and  _215
REMARK   89  A    between atoms: _218  and  _220
REMARK   90  A    between atoms: _220  and  _221
REMARK   91  A    between atoms: _220  and  _223
REMARK   92  A    between atoms: _223  and  _224
REMARK   93  A    between atoms: _224  and  _225
REMARK   94  A    between atoms: _230  and  _232
REMARK   95  A    between atoms: _232  and  _233
REMARK   96  A    between atoms: _235  and  _237
REMARK   97  A    between atoms: _237  and  _238
REMARK   98  A    between atoms: _237  and  _240
REMARK   99  A    between atoms: _240  and  _241
REMARK  100  A    between atoms: _244  and  _246
REMARK  101  A    between atoms: _246  and  _247
REMARK  102  A    between atoms: _246  and  _249
REMARK  103  A    between atoms: _249  and  _250
REMARK  104  A    between atoms: _253  and  _255
REMARK  105  A    between atoms: _255  and  _256
REMARK  106  A    between atoms: _255  and  _258
REMARK  107  A    between atoms: _258  and  _259
REMARK  108  A    between atoms: _262  and  _264
REMARK  109  A    between atoms: _264  and  _265
REMARK  110  A    between atoms: _264  and  _267
REMARK  111  A    between atoms: _267  and  _268
REMARK  112  A    between atoms: _273  and  _275
REMARK  113  A    between atoms: _275  and  _276
REMARK  114  A    between atoms: _275  and  _278
REMARK  115  A    between atoms: _278  and  _279
REMARK  116  A    between atoms: _279  and  _280
REMARK  117  A    between atoms: _283  and  _285
REMARK  118  A    between atoms: _285  and  _286
REMARK  119  A    between atoms: _289  and  _291
REMARK  120  A    between atoms: _291  and  _292
REMARK  121  A    between atoms: _291  and  _294
REMARK  122  A    between atoms: _294  and  _295
REMARK  123  A    between atoms: _295  and  _296
REMARK  124  A    between atoms: _301  and  _303
REMARK  125  A    between atoms: _303  and  _304
REMARK  126  A    between atoms: _307  and  _309
REMARK  127  A    between atoms: _309  and  _310
REMARK  128  A    between atoms: _309  and  _312
REMARK  129  A    between atoms: _312  and  _313
REMARK  130  A    between atoms: _316  and  _318
REMARK  131  A    between atoms: _318  and  _319
REMARK  132  A    between atoms: _318  and  _321
REMARK  133  A    between atoms: _321  and  _322
REMARK  134  A    between atoms: _325  and  _327
REMARK  135  A    between atoms: _327  and  _328
REMARK  136  A    between atoms: _327  and  _330
REMARK  137  A    between atoms: _330  and  _331
REMARK  138  A    between atoms: _334  and  _336
REMARK  139  A    between atoms: _336  and  _337
REMARK  140  A    between atoms: _336  and  _339
REMARK  141  A    between atoms: _339  and  _340
REMARK  142  A    between atoms: _343  and  _345
REMARK  143  A    between atoms: _345  and  _346
REMARK  144  A    between atoms: _345  and  _348
REMARK  145  A    between atoms: _348  and  _349
REMARK  146  A    between atoms: _351  and  _353
REMARK  147  A    between atoms: _353  and  _354
REMARK  148  A    between atoms: _356  and  _358
REMARK  149  A    between atoms: _358  and  _359
REMARK  150  A    between atoms: _358  and  _361
REMARK  151  A    between atoms: _361  and  _362
REMARK  152  A    between atoms: _365  and  _367
REMARK  153  A    between atoms: _367  and  _368
REMARK  154  A    between atoms: _367  and  _370
REMARK  155  A    between atoms: _370  and  _371
REMARK  156  A    between atoms: _374  and  _376
REMARK  157  A    between atoms: _376  and  _377
REMARK  158  A    between atoms: _376  and  _379
REMARK  159  A    between atoms: _379  and  _380
REMARK  160  A    between atoms: _383  and  _385
REMARK  161  A    between atoms: _385  and  _386
REMARK  162  A    between atoms: _385  and  _388
REMARK  163  A    between atoms: _388  and  _389
REMARK  164  A    between atoms: _392  and  _394
REMARK  165  A    between atoms: _394  and  _395
REMARK  166  A    between atoms: _394  and  _397
REMARK  167  A    between atoms: _397  and  _398
REMARK  168  A    between atoms: _403  and  _404
REMARK  169  A    between atoms: _406  and  _408
REMARK  170  A    between atoms: _408  and  _409
REMARK  171  A    between atoms: _408  and  _411
REMARK  172  A    between atoms: _411  and  _412
REMARK  173  A    between atoms: _412  and  _413
REMARK  174  A    between atoms: _418  and  _420
REMARK  175  A    between atoms: _420  and  _421
REMARK  176  A    between atoms: _420  and  _423
REMARK  177  A    between atoms: _423  and  _424
REMARK  178  A    between atoms: _427  and  _429
REMARK  179  A    between atoms: _429  and  _430
REMARK  180  A    between atoms: _429  and  _432
REMARK  181  A    between atoms: _432  and  _433
REMARK  182  A    between atoms: _438  and  _439
REMARK  183  A    between atoms: _441  and  _443
REMARK  184  A    between atoms: _443  and  _444
REMARK  185  A    between atoms: _443  and  _446
REMARK  186  A    between atoms: _446  and  _447
REMARK  187  A    between atoms: _447  and  _448
REMARK  188  A    between atoms: _453  and  _455
REMARK  189  A    between atoms: _455  and  _456
REMARK  190  A    between atoms: _455  and  _458
REMARK  191  A    between atoms: _458  and  _459
REMARK  192  A    between atoms: _464  and  _466
REMARK  193  A    between atoms: _466  and  _467
REMARK  194  A    between atoms: _466  and  _469
REMARK  195  A    between atoms: _469  and  _470
REMARK  196  A    between atoms: _473  and  _475
REMARK  197  A    between atoms: _475  and  _476
REMARK  198  A    between atoms: _475  and  _478
REMARK  199  A    between atoms: _478  and  _479
REMARK  200  A    between atoms: _489  and  _491
REMARK  201  A    between atoms: _491  and  _492
REMARK  202  A    between atoms: _491  and  _494
REMARK  203  A    between atoms: _494  and  _495
REMARK  204  A    between atoms: _495  and  _496
REMARK  205  A    between atoms: _501  and  _503
REMARK  206  A    between atoms: _503  and  _504
REMARK  207  A    between atoms: _503  and  _506
REMARK  208  A    between atoms: _506  and  _507
REMARK  209  A    between atoms: _509  and  _511
REMARK  210  A    between atoms: _511  and  _512
REMARK  211  A    between atoms: _511  and  _514
REMARK  212  A    between atoms: _514  and  _515
REMARK  213  A    between atoms: _518  and  _520
REMARK  214  A    between atoms: _520  and  _521
REMARK  215  A    between atoms: _520  and  _523
REMARK  216  A    between atoms: _523  and  _524
REMARK  217  A    between atoms: _527  and  _529
REMARK  218  A    between atoms: _529  and  _530
REMARK  219  A    between atoms: _529  and  _532
REMARK  220  A    between atoms: _532  and  _533
REMARK  221  A    between atoms: _536  and  _538
REMARK  222  A    between atoms: _538  and  _539
REMARK  223  A    between atoms: _538  and  _541
REMARK  224  A    between atoms: _541  and  _542
REMARK  225  A    between atoms: _545  and  _547
REMARK  226  A    between atoms: _547  and  _548
REMARK  227  A    between atoms: _550  and  _552
REMARK  228  A    between atoms: _552  and  _553
REMARK  229  A    between atoms: _552  and  _555
REMARK  230  A    between atoms: _555  and  _556
REMARK                            x       y       z     vdW  Elec       q    Type
REMARK                         _______ _______ _______ _____ _____    ______ ____
ROOT
ATOM      1  O   HOH     1      14.401  25.324  64.824  0.00  0.00    +0.000 OA
ENDROOT
TORSDOF 0
REMARK  Name = ../refined-set-2016/3fv3/3fv3_pocket.pdb
REMARK  230 active torsions:
REMARK  status: ('A' for Active; 'I' for Inactive)
REMARK    1  A    between atoms: _1  and  _3
REMARK    2  A    between atoms: _3  and  _4
REMARK    3  A    between atoms: _7  and  _8
REMARK    4  A    between atoms: _13  and  _15
REMARK    5  A    between atoms: _15  and  _16
REMARK    6  A    between atoms: _15  and  _18
REMARK    7  A    between atoms: _18  and  _19
REMARK    8  A    between atoms: _21  and  _23
REMARK    9  A    between atoms: _23  and  _24
REMARK   10  A    between atoms: _23  and  _26
REMARK   11  A    between atoms: _26  and  _27
REMARK   12  A    between atoms: _32  and  _33
REMARK   13  A    between atoms: _35  and  _37
REMARK   14  A    between atoms: _37  and  _38
REMARK   15  A    between atoms: _37  and  _40
REMARK   16  A    between atoms: _40  and  _41
REMARK   17  A    between atoms: _44  and  _46
REMARK   18  A    between atoms: _46  and  _47
REMARK   19  A    between atoms: _46  and  _49
REMARK   20  A    between atoms: _49  and  _50
REMARK   21  A    between atoms: _53  and  _55
REMARK   22  A    between atoms: _55  and  _56
REMARK   23  A    between atoms: _55  and  _58
REMARK   24  A    between atoms: _58  and  _59
REMARK   25  A    between atoms: _62  and  _64
REMARK   26  A    between atoms: _64  and  _65
REMARK   27  A    between atoms: _64  and  _67
REMARK   28  A    between atoms: _67  and  _68
REMARK   29  A    between atoms: _71  and  _73
REMARK   30  A    between atoms: _73  and  _74
REMARK   31  A    between atoms: _76  and  _78
REMARK   32  A    between atoms: _78  and  _79
REMARK   33  A    between atoms: _78  and  _81
REMARK   34  A    between atoms: _81  and  _82
REMARK   35  A    between atoms: _84  and  _86
REMARK   36  A    between atoms: _86  and  _87
REMARK   37  A    between atoms: _86  and  _89
REMARK   38  A    between atoms: _89  and  _90
REMARK   39  A    between atoms: _92  and  _94
REMARK   40  A    between atoms: _94  and  _95
REMARK   41  A    between atoms: _94  and  _97
REMARK   42  A    between atoms: _97  and  _98
REMARK   43  A    between atoms: _101  and  _103
REMARK   44  A    between atoms: _103  and  _104
REMARK   45  A    between atoms: _103  and  _106
REMARK   46  A    between atoms: _106  and  _107
REMARK   47  A    between atoms: _117  and  _119
REMARK   48  A    between atoms: _119  and  _120
REMARK   49  A    between atoms: _119  and  _122
REMARK   50  A    between atoms: _122  and  _123
REMARK   51  A    between atoms: _126  and  _128
REMARK   52  A    between atoms: _128  and  _129
REMARK   53  A    between atoms: _128  and  _131
REMARK   54  A    between atoms: _131  and  _132
REMARK   55  A    between atoms: _132  and  _133
REMARK   56  A    between atoms: _133  and  _134
REMARK   57  A    between atoms: _143  and  _145
REMARK   58  A    between atoms: _145  and  _146
REMARK   59  A    between atoms: _145  and  _148
REMARK   60  A    between atoms: _148  and  _149
REMARK   61  A    between atoms: _154  and  _155
REMARK   62  A    between atoms: _157  and  _159
REMARK   63  A    between atoms: _159  and  _160
REMARK   64  A    between atoms: _162  and  _164
REMARK   65  A    between atoms: _164  and  _165
REMARK   66  A    between atoms: _164  and  _167
REMARK   67  A    between atoms: _167  and  _168
REMARK   68  A    between atoms: _171  and  _173
REMARK   69  A    between atoms: _173  and  _174
REMARK   70  A    between atoms: _176  and  _178
REMARK   71  A    between atoms: _178  and  _179
REMARK   72  A    between atoms: _178  and  _181
REMARK   73  A    between atoms: _181  and  _182
REMARK   74  A    between atoms: _184  and  _186
REMARK   75  A    between atoms: _186  and  _187
REMARK   76  A    between atoms: _186  and  _189
REMARK   77  A    between atoms: _189  and  _190
REMARK   78  A    between atoms: _193  and  _195
REMARK   79  A    between atoms: _195  and  _196
REMARK   80  A    between atoms: _195  and  _198
REMARK   81  A    between atoms: _198  and  _199
REMARK   82  A    between atoms: _201  and  _203
REMARK   83  A    between atoms: _203  and  _204
REMARK   84  A    between atoms: _203  and  _206
REMARK   85  A    between atoms: _209  and  _211
REMARK   86  A    between atoms: _211  and  _212
REMARK   87  A    between atoms: _211  and  _214
REMARK   88  A    between atoms: _214  and  _215
REMARK   89  A    between atoms: _218  and  _220
REMARK   90  A    between atoms: _220  and  _221
REMARK   91  A    between atoms: _220  and  _223
REMARK   92  A    between atoms: _223  and  _224
REMARK   93  A    between atoms: _224  and  _225
REMARK   94  A    between atoms: _230  and  _232
REMARK   95  A    between atoms: _232  and  _233
REMARK   96  A    between atoms: _235  and  _237
REMARK   97  A    between atoms: _237  and  _238
REMARK   98  A    between atoms: _237  and  _240
REMARK   99  A    between atoms: _240  and  _241
REMARK  100  A    between atoms: _244  and  _246
REMARK  101  A    between atoms: _246  and  _247
REMARK  102  A    between atoms: _246  and  _249
REMARK  103  A    between atoms: _249  and  _250
REMARK  104  A    between atoms: _253  and  _255
REMARK  105  A    between atoms: _255  and  _256
REMARK  106  A    between atoms: _255  and  _258
REMARK  107  A    between atoms: _258  and  _259
REMARK  108  A    between atoms: _262  and  _264
REMARK  109  A    between atoms: _264  and  _265
REMARK  110  A    between atoms: _264  and  _267
REMARK  111  A    between atoms: _267  and  _268
REMARK  112  A    between atoms: _273  and  _275
REMARK  113  A    between atoms: _275  and  _276
REMARK  114  A    between atoms: _275  and  _278
REMARK  115  A    between atoms: _278  and  _279
REMARK  116  A    between atoms: _279  and  _280
REMARK  117  A    between atoms: _283  and  _285
REMARK  118  A    between atoms: _285  and  _286
REMARK  119  A    between atoms: _289  and  _291
REMARK  120  A    between atoms: _291  and  _292
REMARK  121  A    between atoms: _291  and  _294
REMARK  122  A    between atoms: _294  and  _295
REMARK  123  A    between atoms: _295  and  _296
REMARK  124  A    between atoms: _301  and  _303
REMARK  125  A    between atoms: _303  and  _304
REMARK  126  A    between atoms: _307  and  _309
REMARK  127  A    between atoms: _309  and  _310
REMARK  128  A    between atoms: _309  and  _312
REMARK  129  A    between atoms: _312  and  _313
REMARK  130  A    between atoms: _316  and  _318
REMARK  131  A    between atoms: _318  and  _319
REMARK  132  A    between atoms: _318  and  _321
REMARK  133  A    between atoms: _321  and  _322
REMARK  134  A    between atoms: _325  and  _327
REMARK  135  A    between atoms: _327  and  _328
REMARK  136  A    between atoms: _327  and  _330
REMARK  137  A    between atoms: _330  and  _331
REMARK  138  A    between atoms: _334  and  _336
REMARK  139  A    between atoms: _336  and  _337
REMARK  140  A    between atoms: _336  and  _339
REMARK  141  A    between atoms: _339  and  _340
REMARK  142  A    between atoms: _343  and  _345
REMARK  143  A    between atoms: _345  and  _346
REMARK  144  A    between atoms: _345  and  _348
REMARK  145  A    between atoms: _348  and  _349
REMARK  146  A    between atoms: _351  and  _353
REMARK  147  A    between atoms: _353  and  _354
REMARK  148  A    between atoms: _356  and  _358
REMARK  149  A    between atoms: _358  and  _359
REMARK  150  A    between atoms: _358  and  _361
REMARK  151  A    between atoms: _361  and  _362
REMARK  152  A    between atoms: _365  and  _367
REMARK  153  A    between atoms: _367  and  _368
REMARK  154  A    between atoms: _367  and  _370
REMARK  155  A    between atoms: _370  and  _371
REMARK  156  A    between atoms: _374  and  _376
REMARK  157  A    between atoms: _376  and  _377
REMARK  158  A    between atoms: _376  and  _379
REMARK  159  A    between atoms: _379  and  _380
REMARK  160  A    between atoms: _383  and  _385
REMARK  161  A    between atoms: _385  and  _386
REMARK  162  A    between atoms: _385  and  _388
REMARK  163  A    between atoms: _388  and  _389
REMARK  164  A    between atoms: _392  and  _394
REMARK  165  A    between atoms: _394  and  _395
REMARK  166  A    between atoms: _394  and  _397
REMARK  167  A    between atoms: _397  and  _398
REMARK  168  A    between atoms: _403  and  _404
REMARK  169  A    between atoms: _406  and  _408
REMARK  170  A    between atoms: _408  and  _409
REMARK  171  A    between atoms: _408  and  _411
REMARK  172  A    between atoms: _411  and  _412
REMARK  173  A    between atoms: _412  and  _413
REMARK  174  A    between atoms: _418  and  _420
REMARK  175  A    between atoms: _420  and  _421
REMARK  176  A    between atoms: _420  and  _423
REMARK  177  A    between atoms: _423  and  _424
REMARK  178  A    between atoms: _427  and  _429
REMARK  179  A    between atoms: _429  and  _430
REMARK  180  A    between atoms: _429  and  _432
REMARK  181  A    between atoms: _432  and  _433
REMARK  182  A    between atoms: _438  and  _439
REMARK  183  A    between atoms: _441  and  _443
REMARK  184  A    between atoms: _443  and  _444
REMARK  185  A    between atoms: _443  and  _446
REMARK  186  A    between atoms: _446  and  _447
REMARK  187  A    between atoms: _447  and  _448
REMARK  188  A    between atoms: _453  and  _455
REMARK  189  A    between atoms: _455  and  _456
REMARK  190  A    between atoms: _455  and  _458
REMARK  191  A    between atoms: _458  and  _459
REMARK  192  A    between atoms: _464  and  _466
REMARK  193  A    between atoms: _466  and  _467
REMARK  194  A    between atoms: _466  and  _469
REMARK  195  A    between atoms: _469  and  _470
REMARK  196  A    between atoms: _473  and  _475
REMARK  197  A    between atoms: _475  and  _476
REMARK  198  A    between atoms: _475  and  _478
REMARK  199  A    between atoms: _478  and  _479
REMARK  200  A    between atoms: _489  and  _491
REMARK  201  A    between atoms: _491  and  _492
REMARK  202  A    between atoms: _491  and  _494
REMARK  203  A    between atoms: _494  and  _495
REMARK  204  A    between atoms: _495  and  _496
REMARK  205  A    between atoms: _501  and  _503
REMARK  206  A    between atoms: _503  and  _504
REMARK  207  A    between atoms: _503  and  _506
REMARK  208  A    between atoms: _506  and  _507
REMARK  209  A    between atoms: _509  and  _511
REMARK  210  A    between atoms: _511  and  _512
REMARK  211  A    between atoms: _511  and  _514
REMARK  212  A    between atoms: _514  and  _515
REMARK  213  A    between atoms: _518  and  _520
REMARK  214  A    between atoms: _520  and  _521
REMARK  215  A    between atoms: _520  and  _523
REMARK  216  A    between atoms: _523  and  _524
REMARK  217  A    between atoms: _527  and  _529
REMARK  218  A    between atoms: _529  and  _530
REMARK  219  A    between atoms: _529  and  _532
REMARK  220  A    between atoms: _532  and  _533
REMARK  221  A    between atoms: _536  and  _538
REMARK  222  A    between atoms: _538  and  _539
REMARK  223  A    between atoms: _538  and  _541
REMARK  224  A    between atoms: _541  and  _542
REMARK  225  A    between atoms: _545  and  _547
REMARK  226  A    between atoms: _547  and  _548
REMARK  227  A    between atoms: _550  and  _552
REMARK  228  A    between atoms: _552  and  _553
REMARK  229  A    between atoms: _552  and  _555
REMARK  230  A    between atoms: _555  and  _556
REMARK                            x       y       z     vdW  Elec       q    Type
REMARK                         _______ _______ _______ _____ _____    ______ ____
ROOT
ATOM      1  O   HOH     1      14.213  28.043  62.233  0.00  0.00    +0.000 OA
ENDROOT
TORSDOF 0
REMARK  Name = ../refined-set-2016/3fv3/3fv3_pocket.pdb
REMARK  230 active torsions:
REMARK  status: ('A' for Active; 'I' for Inactive)
REMARK    1  A    between atoms: _1  and  _3
REMARK    2  A    between atoms: _3  and  _4
REMARK    3  A    between atoms: _7  and  _8
REMARK    4  A    between atoms: _13  and  _15
REMARK    5  A    between atoms: _15  and  _16
REMARK    6  A    between atoms: _15  and  _18
REMARK    7  A    between atoms: _18  and  _19
REMARK    8  A    between atoms: _21  and  _23
REMARK    9  A    between atoms: _23  and  _24
REMARK   10  A    between atoms: _23  and  _26
REMARK   11  A    between atoms: _26  and  _27
REMARK   12  A    between atoms: _32  and  _33
REMARK   13  A    between atoms: _35  and  _37
REMARK   14  A    between atoms: _37  and  _38
REMARK   15  A    between atoms: _37  and  _40
REMARK   16  A    between atoms: _40  and  _41
REMARK   17  A    between atoms: _44  and  _46
REMARK   18  A    between atoms: _46  and  _47
REMARK   19  A    between atoms: _46  and  _49
REMARK   20  A    between atoms: _49  and  _50
REMARK   21  A    between atoms: _53  and  _55
REMARK   22  A    between atoms: _55  and  _56
REMARK   23  A    between atoms: _55  and  _58
REMARK   24  A    between atoms: _58  and  _59
REMARK   25  A    between atoms: _62  and  _64
REMARK   26  A    between atoms: _64  and  _65
REMARK   27  A    between atoms: _64  and  _67
REMARK   28  A    between atoms: _67  and  _68
REMARK   29  A    between atoms: _71  and  _73
REMARK   30  A    between atoms: _73  and  _74
REMARK   31  A    between atoms: _76  and  _78
REMARK   32  A    between atoms: _78  and  _79
REMARK   33  A    between atoms: _78  and  _81
REMARK   34  A    between atoms: _81  and  _82
REMARK   35  A    between atoms: _84  and  _86
REMARK   36  A    between atoms: _86  and  _87
REMARK   37  A    between atoms: _86  and  _89
REMARK   38  A    between atoms: _89  and  _90
REMARK   39  A    between atoms: _92  and  _94
REMARK   40  A    between atoms: _94  and  _95
REMARK   41  A    between atoms: _94  and  _97
REMARK   42  A    between atoms: _97  and  _98
REMARK   43  A    between atoms: _101  and  _103
REMARK   44  A    between atoms: _103  and  _104
REMARK   45  A    between atoms: _103  and  _106
REMARK   46  A    between atoms: _106  and  _107
REMARK   47  A    between atoms: _117  and  _119
REMARK   48  A    between atoms: _119  and  _120
REMARK   49  A    between atoms: _119  and  _122
REMARK   50  A    between atoms: _122  and  _123
REMARK   51  A    between atoms: _126  and  _128
REMARK   52  A    between atoms: _128  and  _129
REMARK   53  A    between atoms: _128  and  _131
REMARK   54  A    between atoms: _131  and  _132
REMARK   55  A    between atoms: _132  and  _133
REMARK   56  A    between atoms: _133  and  _134
REMARK   57  A    between atoms: _143  and  _145
REMARK   58  A    between atoms: _145  and  _146
REMARK   59  A    between atoms: _145  and  _148
REMARK   60  A    between atoms: _148  and  _149
REMARK   61  A    between atoms: _154  and  _155
REMARK   62  A    between atoms: _157  and  _159
REMARK   63  A    between atoms: _159  and  _160
REMARK   64  A    between atoms: _162  and  _164
REMARK   65  A    between atoms: _164  and  _165
REMARK   66  A    between atoms: _164  and  _167
REMARK   67  A    between atoms: _167  and  _168
REMARK   68  A    between atoms: _171  and  _173
REMARK   69  A    between atoms: _173  and  _174
REMARK   70  A    between atoms: _176  and  _178
REMARK   71  A    between atoms: _178  and  _179
REMARK   72  A    between atoms: _178  and  _181
REMARK   73  A    between atoms: _181  and  _182
REMARK   74  A    between atoms: _184  and  _186
REMARK   75  A    between atoms: _186  and  _187
REMARK   76  A    between atoms: _186  and  _189
REMARK   77  A    between atoms: _189  and  _190
REMARK   78  A    between atoms: _193  and  _195
REMARK   79  A    between atoms: _195  and  _196
REMARK   80  A    between atoms: _195  and  _198
REMARK   81  A    between atoms: _198  and  _199
REMARK   82  A    between atoms: _201  and  _203
REMARK   83  A    between atoms: _203  and  _204
REMARK   84  A    between atoms: _203  and  _206
REMARK   85  A    between atoms: _209  and  _211
REMARK   86  A    between atoms: _211  and  _212
REMARK   87  A    between atoms: _211  and  _214
REMARK   88  A    between atoms: _214  and  _215
REMARK   89  A    between atoms: _218  and  _220
REMARK   90  A    between atoms: _220  and  _221
REMARK   91  A    between atoms: _220  and  _223
REMARK   92  A    between atoms: _223  and  _224
REMARK   93  A    between atoms: _224  and  _225
REMARK   94  A    between atoms: _230  and  _232
REMARK   95  A    between atoms: _232  and  _233
REMARK   96  A    between atoms: _235  and  _237
REMARK   97  A    between atoms: _237  and  _238
REMARK   98  A    between atoms: _237  and  _240
REMARK   99  A    between atoms: _240  and  _241
REMARK  100  A    between atoms: _244  and  _246
REMARK  101  A    between atoms: _246  and  _247
REMARK  102  A    between atoms: _246  and  _249
REMARK  103  A    between atoms: _249  and  _250
REMARK  104  A    between atoms: _253  and  _255
REMARK  105  A    between atoms: _255  and  _256
REMARK  106  A    between atoms: _255  and  _258
REMARK  107  A    between atoms: _258  and  _259
REMARK  108  A    between atoms: _262  and  _264
REMARK  109  A    between atoms: _264  and  _265
REMARK  110  A    between atoms: _264  and  _267
REMARK  111  A    between atoms: _267  and  _268
REMARK  112  A    between atoms: _273  and  _275
REMARK  113  A    between atoms: _275  and  _276
REMARK  114  A    between atoms: _275  and  _278
REMARK  115  A    between atoms: _278  and  _279
REMARK  116  A    between atoms: _279  and  _280
REMARK  117  A    between atoms: _283  and  _285
REMARK  118  A    between atoms: _285  and  _286
REMARK  119  A    between atoms: _289  and  _291
REMARK  120  A    between atoms: _291  and  _292
REMARK  121  A    between atoms: _291  and  _294
REMARK  122  A    between atoms: _294  and  _295
REMARK  123  A    between atoms: _295  and  _296
REMARK  124  A    between atoms: _301  and  _303
REMARK  125  A    between atoms: _303  and  _304
REMARK  126  A    between atoms: _307  and  _309
REMARK  127  A    between atoms: _309  and  _310
REMARK  128  A    between atoms: _309  and  _312
REMARK  129  A    between atoms: _312  and  _313
REMARK  130  A    between atoms: _316  and  _318
REMARK  131  A    between atoms: _318  and  _319
REMARK  132  A    between atoms: _318  and  _321
REMARK  133  A    between atoms: _321  and  _322
REMARK  134  A    between atoms: _325  and  _327
REMARK  135  A    between atoms: _327  and  _328
REMARK  136  A    between atoms: _327  and  _330
REMARK  137  A    between atoms: _330  and  _331
REMARK  138  A    between atoms: _334  and  _336
REMARK  139  A    between atoms: _336  and  _337
REMARK  140  A    between atoms: _336  and  _339
REMARK  141  A    between atoms: _339  and  _340
REMARK  142  A    between atoms: _343  and  _345
REMARK  143  A    between atoms: _345  and  _346
REMARK  144  A    between atoms: _345  and  _348
REMARK  145  A    between atoms: _348  and  _349
REMARK  146  A    between atoms: _351  and  _353
REMARK  147  A    between atoms: _353  and  _354
REMARK  148  A    between atoms: _356  and  _358
REMARK  149  A    between atoms: _358  and  _359
REMARK  150  A    between atoms: _358  and  _361
REMARK  151  A    between atoms: _361  and  _362
REMARK  152  A    between atoms: _365  and  _367
REMARK  153  A    between atoms: _367  and  _368
REMARK  154  A    between atoms: _367  and  _370
REMARK  155  A    between atoms: _370  and  _371
REMARK  156  A    between atoms: _374  and  _376
REMARK  157  A    between atoms: _376  and  _377
REMARK  158  A    between atoms: _376  and  _379
REMARK  159  A    between atoms: _379  and  _380
REMARK  160  A    between atoms: _383  and  _385
REMARK  161  A    between atoms: _385  and  _386
REMARK  162  A    between atoms: _385  and  _388
REMARK  163  A    between atoms: _388  and  _389
REMARK  164  A    between atoms: _392  and  _394
REMARK  165  A    between atoms: _394  and  _395
REMARK  166  A    between atoms: _394  and  _397
REMARK  167  A    between atoms: _397  and  _398
REMARK  168  A    between atoms: _403  and  _404
REMARK  169  A    between atoms: _406  and  _408
REMARK  170  A    between atoms: _408  and  _409
REMARK  171  A    between atoms: _408  and  _411
REMARK  172  A    between atoms: _411  and  _412
REMARK  173  A    between atoms: _412  and  _413
REMARK  174  A    between atoms: _418  and  _420
REMARK  175  A    between atoms: _420  and  _421
REMARK  176  A    between atoms: _420  and  _423
REMARK  177  A    between atoms: _423  and  _424
REMARK  178  A    between atoms: _427  and  _429
REMARK  179  A    between atoms: _429  and  _430
REMARK  180  A    between atoms: _429  and  _432
REMARK  181  A    between atoms: _432  and  _433
REMARK  182  A    between atoms: _438  and  _439
REMARK  183  A    between atoms: _441  and  _443
REMARK  184  A    between atoms: _443  and  _444
REMARK  185  A    between atoms: _443  and  _446
REMARK  186  A    between atoms: _446  and  _447
REMARK  187  A    between atoms: _447  and  _448
REMARK  188  A    between atoms: _453  and  _455
REMARK  189  A    between atoms: _455  and  _456
REMARK  190  A    between atoms: _455  and  _458
REMARK  191  A    between atoms: _458  and  _459
REMARK  192  A    between atoms: _464  and  _466
REMARK  193  A    between atoms: _466  and  _467
REMARK  194  A    between atoms: _466  and  _469
REMARK  195  A    between atoms: _469  and  _470
REMARK  196  A    between atoms: _473  and  _475
REMARK  197  A    between atoms: _475  and  _476
REMARK  198  A    between atoms: _475  and  _478
REMARK  199  A    between atoms: _478  and  _479
REMARK  200  A    between atoms: _489  and  _491
REMARK  201  A    between atoms: _491  and  _492
REMARK  202  A    between atoms: _491  and  _494
REMARK  203  A    between atoms: _494  and  _495
REMARK  204  A    between atoms: _495  and  _496
REMARK  205  A    between atoms: _501  and  _503
REMARK  206  A    between atoms: _503  and  _504
REMARK  207  A    between atoms: _503  and  _506
REMARK  208  A    between atoms: _506  and  _507
REMARK  209  A    between atoms: _509  and  _511
REMARK  210  A    between atoms: _511  and  _512
REMARK  211  A    between atoms: _511  and  _514
REMARK  212  A    between atoms: _514  and  _515
REMARK  213  A    between atoms: _518  and  _520
REMARK  214  A    between atoms: _520  and  _521
REMARK  215  A    between atoms: _520  and  _523
REMARK  216  A    between atoms: _523  and  _524
REMARK  217  A    between atoms: _527  and  _529
REMARK  218  A    between atoms: _529  and  _530
REMARK  219  A    between atoms: _529  and  _532
REMARK  220  A    between atoms: _532  and  _533
REMARK  221  A    between atoms: _536  and  _538
REMARK  222  A    between atoms: _538  and  _539
REMARK  223  A    between atoms: _538  and  _541
REMARK  224  A    between atoms: _541  and  _542
REMARK  225  A    between atoms: _545  and  _547
REMARK  226  A    between atoms: _547  and  _548
REMARK  227  A    between atoms: _550  and  _552
REMARK  228  A    between atoms: _552  and  _553
REMARK  229  A    between atoms: _552  and  _555
REMARK  230  A    between atoms: _555  and  _556
REMARK                            x       y       z     vdW  Elec       q    Type
REMARK                         _______ _______ _______ _____ _____    ______ ____
ROOT
ATOM      1  O   HOH     1      17.010  30.730  54.267  0.00  0.00    +0.000 OA
ENDROOT
TORSDOF 0
REMARK  Name = ../refined-set-2016/3fv3/3fv3_pocket.pdb
REMARK  230 active torsions:
REMARK  status: ('A' for Active; 'I' for Inactive)
REMARK    1  A    between atoms: _1  and  _3
REMARK    2  A    between atoms: _3  and  _4
REMARK    3  A    between atoms: _7  and  _8
REMARK    4  A    between atoms: _13  and  _15
REMARK    5  A    between atoms: _15  and  _16
REMARK    6  A    between atoms: _15  and  _18
REMARK    7  A    between atoms: _18  and  _19
REMARK    8  A    between atoms: _21  and  _23
REMARK    9  A    between atoms: _23  and  _24
REMARK   10  A    between atoms: _23  and  _26
REMARK   11  A    between atoms: _26  and  _27
REMARK   12  A    between atoms: _32  and  _33
REMARK   13  A    between atoms: _35  and  _37
REMARK   14  A    between atoms: _37  and  _38
REMARK   15  A    between atoms: _37  and  _40
REMARK   16  A    between atoms: _40  and  _41
REMARK   17  A    between atoms: _44  and  _46
REMARK   18  A    between atoms: _46  and  _47
REMARK   19  A    between atoms: _46  and  _49
REMARK   20  A    between atoms: _49  and  _50
REMARK   21  A    between atoms: _53  and  _55
REMARK   22  A    between atoms: _55  and  _56
REMARK   23  A    between atoms: _55  and  _58
REMARK   24  A    between atoms: _58  and  _59
REMARK   25  A    between atoms: _62  and  _64
REMARK   26  A    between atoms: _64  and  _65
REMARK   27  A    between atoms: _64  and  _67
REMARK   28  A    between atoms: _67  and  _68
REMARK   29  A    between atoms: _71  and  _73
REMARK   30  A    between atoms: _73  and  _74
REMARK   31  A    between atoms: _76  and  _78
REMARK   32  A    between atoms: _78  and  _79
REMARK   33  A    between atoms: _78  and  _81
REMARK   34  A    between atoms: _81  and  _82
REMARK   35  A    between atoms: _84  and  _86
REMARK   36  A    between atoms: _86  and  _87
REMARK   37  A    between atoms: _86  and  _89
REMARK   38  A    between atoms: _89  and  _90
REMARK   39  A    between atoms: _92  and  _94
REMARK   40  A    between atoms: _94  and  _95
REMARK   41  A    between atoms: _94  and  _97
REMARK   42  A    between atoms: _97  and  _98
REMARK   43  A    between atoms: _101  and  _103
REMARK   44  A    between atoms: _103  and  _104
REMARK   45  A    between atoms: _103  and  _106
REMARK   46  A    between atoms: _106  and  _107
REMARK   47  A    between atoms: _117  and  _119
REMARK   48  A    between atoms: _119  and  _120
REMARK   49  A    between atoms: _119  and  _122
REMARK   50  A    between atoms: _122  and  _123
REMARK   51  A    between atoms: _126  and  _128
REMARK   52  A    between atoms: _128  and  _129
REMARK   53  A    between atoms: _128  and  _131
REMARK   54  A    between atoms: _131  and  _132
REMARK   55  A    between atoms: _132  and  _133
REMARK   56  A    between atoms: _133  and  _134
REMARK   57  A    between atoms: _143  and  _145
REMARK   58  A    between atoms: _145  and  _146
REMARK   59  A    between atoms: _145  and  _148
REMARK   60  A    between atoms: _148  and  _149
REMARK   61  A    between atoms: _154  and  _155
REMARK   62  A    between atoms: _157  and  _159
REMARK   63  A    between atoms: _159  and  _160
REMARK   64  A    between atoms: _162  and  _164
REMARK   65  A    between atoms: _164  and  _165
REMARK   66  A    between atoms: _164  and  _167
REMARK   67  A    between atoms: _167  and  _168
REMARK   68  A    between atoms: _171  and  _173
REMARK   69  A    between atoms: _173  and  _174
REMARK   70  A    between atoms: _176  and  _178
REMARK   71  A    between atoms: _178  and  _179
REMARK   72  A    between atoms: _178  and  _181
REMARK   73  A    between atoms: _181  and  _182
REMARK   74  A    between atoms: _184  and  _186
REMARK   75  A    between atoms: _186  and  _187
REMARK   76  A    between atoms: _186  and  _189
REMARK   77  A    between atoms: _189  and  _190
REMARK   78  A    between atoms: _193  and  _195
REMARK   79  A    between atoms: _195  and  _196
REMARK   80  A    between atoms: _195  and  _198
REMARK   81  A    between atoms: _198  and  _199
REMARK   82  A    between atoms: _201  and  _203
REMARK   83  A    between atoms: _203  and  _204
REMARK   84  A    between atoms: _203  and  _206
REMARK   85  A    between atoms: _209  and  _211
REMARK   86  A    between atoms: _211  and  _212
REMARK   87  A    between atoms: _211  and  _214
REMARK   88  A    between atoms: _214  and  _215
REMARK   89  A    between atoms: _218  and  _220
REMARK   90  A    between atoms: _220  and  _221
REMARK   91  A    between atoms: _220  and  _223
REMARK   92  A    between atoms: _223  and  _224
REMARK   93  A    between atoms: _224  and  _225
REMARK   94  A    between atoms: _230  and  _232
REMARK   95  A    between atoms: _232  and  _233
REMARK   96  A    between atoms: _235  and  _237
REMARK   97  A    between atoms: _237  and  _238
REMARK   98  A    between atoms: _237  and  _240
REMARK   99  A    between atoms: _240  and  _241
REMARK  100  A    between atoms: _244  and  _246
REMARK  101  A    between atoms: _246  and  _247
REMARK  102  A    between atoms: _246  and  _249
REMARK  103  A    between atoms: _249  and  _250
REMARK  104  A    between atoms: _253  and  _255
REMARK  105  A    between atoms: _255  and  _256
REMARK  106  A    between atoms: _255  and  _258
REMARK  107  A    between atoms: _258  and  _259
REMARK  108  A    between atoms: _262  and  _264
REMARK  109  A    between atoms: _264  and  _265
REMARK  110  A    between atoms: _264  and  _267
REMARK  111  A    between atoms: _267  and  _268
REMARK  112  A    between atoms: _273  and  _275
REMARK  113  A    between atoms: _275  and  _276
REMARK  114  A    between atoms: _275  and  _278
REMARK  115  A    between atoms: _278  and  _279
REMARK  116  A    between atoms: _279  and  _280
REMARK  117  A    between atoms: _283  and  _285
REMARK  118  A    between atoms: _285  and  _286
REMARK  119  A    between atoms: _289  and  _291
REMARK  120  A    between atoms: _291  and  _292
REMARK  121  A    between atoms: _291  and  _294
REMARK  122  A    between atoms: _294  and  _295
REMARK  123  A    between atoms: _295  and  _296
REMARK  124  A    between atoms: _301  and  _303
REMARK  125  A    between atoms: _303  and  _304
REMARK  126  A    between atoms: _307  and  _309
REMARK  127  A    between atoms: _309  and  _310
REMARK  128  A    between atoms: _309  and  _312
REMARK  129  A    between atoms: _312  and  _313
REMARK  130  A    between atoms: _316  and  _318
REMARK  131  A    between atoms: _318  and  _319
REMARK  132  A    between atoms: _318  and  _321
REMARK  133  A    between atoms: _321  and  _322
REMARK  134  A    between atoms: _325  and  _327
REMARK  135  A    between atoms: _327  and  _328
REMARK  136  A    between atoms: _327  and  _330
REMARK  137  A    between atoms: _330  and  _331
REMARK  138  A    between atoms: _334  and  _336
REMARK  139  A    between atoms: _336  and  _337
REMARK  140  A    between atoms: _336  and  _339
REMARK  141  A    between atoms: _339  and  _340
REMARK  142  A    between atoms: _343  and  _345
REMARK  143  A    between atoms: _345  and  _346
REMARK  144  A    between atoms: _345  and  _348
REMARK  145  A    between atoms: _348  and  _349
REMARK  146  A    between atoms: _351  and  _353
REMARK  147  A    between atoms: _353  and  _354
REMARK  148  A    between atoms: _356  and  _358
REMARK  149  A    between atoms: _358  and  _359
REMARK  150  A    between atoms: _358  and  _361
REMARK  151  A    between atoms: _361  and  _362
REMARK  152  A    between atoms: _365  and  _367
REMARK  153  A    between atoms: _367  and  _368
REMARK  154  A    between atoms: _367  and  _370
REMARK  155  A    between atoms: _370  and  _371
REMARK  156  A    between atoms: _374  and  _376
REMARK  157  A    between atoms: _376  and  _377
REMARK  158  A    between atoms: _376  and  _379
REMARK  159  A    between atoms: _379  and  _380
REMARK  160  A    between atoms: _383  and  _385
REMARK  161  A    between atoms: _385  and  _386
REMARK  162  A    between atoms: _385  and  _388
REMARK  163  A    between atoms: _388  and  _389
REMARK  164  A    between atoms: _392  and  _394
REMARK  165  A    between atoms: _394  and  _395
REMARK  166  A    between atoms: _394  and  _397
REMARK  167  A    between atoms: _397  and  _398
REMARK  168  A    between atoms: _403  and  _404
REMARK  169  A    between atoms: _406  and  _408
REMARK  170  A    between atoms: _408  and  _409
REMARK  171  A    between atoms: _408  and  _411
REMARK  172  A    between atoms: _411  and  _412
REMARK  173  A    between atoms: _412  and  _413
REMARK  174  A    between atoms: _418  and  _420
REMARK  175  A    between atoms: _420  and  _421
REMARK  176  A    between atoms: _420  and  _423
REMARK  177  A    between atoms: _423  and  _424
REMARK  178  A    between atoms: _427  and  _429
REMARK  179  A    between atoms: _429  and  _430
REMARK  180  A    between atoms: _429  and  _432
REMARK  181  A    between atoms: _432  and  _433
REMARK  182  A    between atoms: _438  and  _439
REMARK  183  A    between atoms: _441  and  _443
REMARK  184  A    between atoms: _443  and  _444
REMARK  185  A    between atoms: _443  and  _446
REMARK  186  A    between atoms: _446  and  _447
REMARK  187  A    between atoms: _447  and  _448
REMARK  188  A    between atoms: _453  and  _455
REMARK  189  A    between atoms: _455  and  _456
REMARK  190  A    between atoms: _455  and  _458
REMARK  191  A    between atoms: _458  and  _459
REMARK  192  A    between atoms: _464  and  _466
REMARK  193  A    between atoms: _466  and  _467
REMARK  194  A    between atoms: _466  and  _469
REMARK  195  A    between atoms: _469  and  _470
REMARK  196  A    between atoms: _473  and  _475
REMARK  197  A    between atoms: _475  and  _476
REMARK  198  A    between atoms: _475  and  _478
REMARK  199  A    between atoms: _478  and  _479
REMARK  200  A    between atoms: _489  and  _491
REMARK  201  A    between atoms: _491  and  _492
REMARK  202  A    between atoms: _491  and  _494
REMARK  203  A    between atoms: _494  and  _495
REMARK  204  A    between atoms: _495  and  _496
REMARK  205  A    between atoms: _501  and  _503
REMARK  206  A    between atoms: _503  and  _504
REMARK  207  A    between atoms: _503  and  _506
REMARK  208  A    between atoms: _506  and  _507
REMARK  209  A    between atoms: _509  and  _511
REMARK  210  A    between atoms: _511  and  _512
REMARK  211  A    between atoms: _511  and  _514
REMARK  212  A    between atoms: _514  and  _515
REMARK  213  A    between atoms: _518  and  _520
REMARK  214  A    between atoms: _520  and  _521
REMARK  215  A    between atoms: _520  and  _523
REMARK  216  A    between atoms: _523  and  _524
REMARK  217  A    between atoms: _527  and  _529
REMARK  218  A    between atoms: _529  and  _530
REMARK  219  A    between atoms: _529  and  _532
REMARK  220  A    between atoms: _532  and  _533
REMARK  221  A    between atoms: _536  and  _538
REMARK  222  A    between atoms: _538  and  _539
REMARK  223  A    between atoms: _538  and  _541
REMARK  224  A    between atoms: _541  and  _542
REMARK  225  A    between atoms: _545  and  _547
REMARK  226  A    between atoms: _547  and  _548
REMARK  227  A    between atoms: _550  and  _552
REMARK  228  A    between atoms: _552  and  _553
REMARK  229  A    between atoms: _552  and  _555
REMARK  230  A    between atoms: _555  and  _556
REMARK                            x       y       z     vdW  Elec       q    Type
REMARK                         _______ _______ _______ _____ _____    ______ ____
ROOT
ATOM      1  O   HOH     1      20.496  23.825  70.601  0.00  0.00    +0.000 OA
ENDROOT
TORSDOF 0
REMARK  Name = ../refined-set-2016/3fv3/3fv3_pocket.pdb
REMARK  230 active torsions:
REMARK  status: ('A' for Active; 'I' for Inactive)
REMARK    1  A    between atoms: _1  and  _3
REMARK    2  A    between atoms: _3  and  _4
REMARK    3  A    between atoms: _7  and  _8
REMARK    4  A    between atoms: _13  and  _15
REMARK    5  A    between atoms: _15  and  _16
REMARK    6  A    between atoms: _15  and  _18
REMARK    7  A    between atoms: _18  and  _19
REMARK    8  A    between atoms: _21  and  _23
REMARK    9  A    between atoms: _23  and  _24
REMARK   10  A    between atoms: _23  and  _26
REMARK   11  A    between atoms: _26  and  _27
REMARK   12  A    between atoms: _32  and  _33
REMARK   13  A    between atoms: _35  and  _37
REMARK   14  A    between atoms: _37  and  _38
REMARK   15  A    between atoms: _37  and  _40
REMARK   16  A    between atoms: _40  and  _41
REMARK   17  A    between atoms: _44  and  _46
REMARK   18  A    between atoms: _46  and  _47
REMARK   19  A    between atoms: _46  and  _49
REMARK   20  A    between atoms: _49  and  _50
REMARK   21  A    between atoms: _53  and  _55
REMARK   22  A    between atoms: _55  and  _56
REMARK   23  A    between atoms: _55  and  _58
REMARK   24  A    between atoms: _58  and  _59
REMARK   25  A    between atoms: _62  and  _64
REMARK   26  A    between atoms: _64  and  _65
REMARK   27  A    between atoms: _64  and  _67
REMARK   28  A    between atoms: _67  and  _68
REMARK   29  A    between atoms: _71  and  _73
REMARK   30  A    between atoms: _73  and  _74
REMARK   31  A    between atoms: _76  and  _78
REMARK   32  A    between atoms: _78  and  _79
REMARK   33  A    between atoms: _78  and  _81
REMARK   34  A    between atoms: _81  and  _82
REMARK   35  A    between atoms: _84  and  _86
REMARK   36  A    between atoms: _86  and  _87
REMARK   37  A    between atoms: _86  and  _89
REMARK   38  A    between atoms: _89  and  _90
REMARK   39  A    between atoms: _92  and  _94
REMARK   40  A    between atoms: _94  and  _95
REMARK   41  A    between atoms: _94  and  _97
REMARK   42  A    between atoms: _97  and  _98
REMARK   43  A    between atoms: _101  and  _103
REMARK   44  A    between atoms: _103  and  _104
REMARK   45  A    between atoms: _103  and  _106
REMARK   46  A    between atoms: _106  and  _107
REMARK   47  A    between atoms: _117  and  _119
REMARK   48  A    between atoms: _119  and  _120
REMARK   49  A    between atoms: _119  and  _122
REMARK   50  A    between atoms: _122  and  _123
REMARK   51  A    between atoms: _126  and  _128
REMARK   52  A    between atoms: _128  and  _129
REMARK   53  A    between atoms: _128  and  _131
REMARK   54  A    between atoms: _131  and  _132
REMARK   55  A    between atoms: _132  and  _133
REMARK   56  A    between atoms: _133  and  _134
REMARK   57  A    between atoms: _143  and  _145
REMARK   58  A    between atoms: _145  and  _146
REMARK   59  A    between atoms: _145  and  _148
REMARK   60  A    between atoms: _148  and  _149
REMARK   61  A    between atoms: _154  and  _155
REMARK   62  A    between atoms: _157  and  _159
REMARK   63  A    between atoms: _159  and  _160
REMARK   64  A    between atoms: _162  and  _164
REMARK   65  A    between atoms: _164  and  _165
REMARK   66  A    between atoms: _164  and  _167
REMARK   67  A    between atoms: _167  and  _168
REMARK   68  A    between atoms: _171  and  _173
REMARK   69  A    between atoms: _173  and  _174
REMARK   70  A    between atoms: _176  and  _178
REMARK   71  A    between atoms: _178  and  _179
REMARK   72  A    between atoms: _178  and  _181
REMARK   73  A    between atoms: _181  and  _182
REMARK   74  A    between atoms: _184  and  _186
REMARK   75  A    between atoms: _186  and  _187
REMARK   76  A    between atoms: _186  and  _189
REMARK   77  A    between atoms: _189  and  _190
REMARK   78  A    between atoms: _193  and  _195
REMARK   79  A    between atoms: _195  and  _196
REMARK   80  A    between atoms: _195  and  _198
REMARK   81  A    between atoms: _198  and  _199
REMARK   82  A    between atoms: _201  and  _203
REMARK   83  A    between atoms: _203  and  _204
REMARK   84  A    between atoms: _203  and  _206
REMARK   85  A    between atoms: _209  and  _211
REMARK   86  A    between atoms: _211  and  _212
REMARK   87  A    between atoms: _211  and  _214
REMARK   88  A    between atoms: _214  and  _215
REMARK   89  A    between atoms: _218  and  _220
REMARK   90  A    between atoms: _220  and  _221
REMARK   91  A    between atoms: _220  and  _223
REMARK   92  A    between atoms: _223  and  _224
REMARK   93  A    between atoms: _224  and  _225
REMARK   94  A    between atoms: _230  and  _232
REMARK   95  A    between atoms: _232  and  _233
REMARK   96  A    between atoms: _235  and  _237
REMARK   97  A    between atoms: _237  and  _238
REMARK   98  A    between atoms: _237  and  _240
REMARK   99  A    between atoms: _240  and  _241
REMARK  100  A    between atoms: _244  and  _246
REMARK  101  A    between atoms: _246  and  _247
REMARK  102  A    between atoms: _246  and  _249
REMARK  103  A    between atoms: _249  and  _250
REMARK  104  A    between atoms: _253  and  _255
REMARK  105  A    between atoms: _255  and  _256
REMARK  106  A    between atoms: _255  and  _258
REMARK  107  A    between atoms: _258  and  _259
REMARK  108  A    between atoms: _262  and  _264
REMARK  109  A    between atoms: _264  and  _265
REMARK  110  A    between atoms: _264  and  _267
REMARK  111  A    between atoms: _267  and  _268
REMARK  112  A    between atoms: _273  and  _275
REMARK  113  A    between atoms: _275  and  _276
REMARK  114  A    between atoms: _275  and  _278
REMARK  115  A    between atoms: _278  and  _279
REMARK  116  A    between atoms: _279  and  _280
REMARK  117  A    between atoms: _283  and  _285
REMARK  118  A    between atoms: _285  and  _286
REMARK  119  A    between atoms: _289  and  _291
REMARK  120  A    between atoms: _291  and  _292
REMARK  121  A    between atoms: _291  and  _294
REMARK  122  A    between atoms: _294  and  _295
REMARK  123  A    between atoms: _295  and  _296
REMARK  124  A    between atoms: _301  and  _303
REMARK  125  A    between atoms: _303  and  _304
REMARK  126  A    between atoms: _307  and  _309
REMARK  127  A    between atoms: _309  and  _310
REMARK  128  A    between atoms: _309  and  _312
REMARK  129  A    between atoms: _312  and  _313
REMARK  130  A    between atoms: _316  and  _318
REMARK  131  A    between atoms: _318  and  _319
REMARK  132  A    between atoms: _318  and  _321
REMARK  133  A    between atoms: _321  and  _322
REMARK  134  A    between atoms: _325  and  _327
REMARK  135  A    between atoms: _327  and  _328
REMARK  136  A    between atoms: _327  and  _330
REMARK  137  A    between atoms: _330  and  _331
REMARK  138  A    between atoms: _334  and  _336
REMARK  139  A    between atoms: _336  and  _337
REMARK  140  A    between atoms: _336  and  _339
REMARK  141  A    between atoms: _339  and  _340
REMARK  142  A    between atoms: _343  and  _345
REMARK  143  A    between atoms: _345  and  _346
REMARK  144  A    between atoms: _345  and  _348
REMARK  145  A    between atoms: _348  and  _349
REMARK  146  A    between atoms: _351  and  _353
REMARK  147  A    between atoms: _353  and  _354
REMARK  148  A    between atoms: _356  and  _358
REMARK  149  A    between atoms: _358  and  _359
REMARK  150  A    between atoms: _358  and  _361
REMARK  151  A    between atoms: _361  and  _362
REMARK  152  A    between atoms: _365  and  _367
REMARK  153  A    between atoms: _367  and  _368
REMARK  154  A    between atoms: _367  and  _370
REMARK  155  A    between atoms: _370  and  _371
REMARK  156  A    between atoms: _374  and  _376
REMARK  157  A    between atoms: _376  and  _377
REMARK  158  A    between atoms: _376  and  _379
REMARK  159  A    between atoms: _379  and  _380
REMARK  160  A    between atoms: _383  and  _385
REMARK  161  A    between atoms: _385  and  _386
REMARK  162  A    between atoms: _385  and  _388
REMARK  163  A    between atoms: _388  and  _389
REMARK  164  A    between atoms: _392  and  _394
REMARK  165  A    between atoms: _394  and  _395
REMARK  166  A    between atoms: _394  and  _397
REMARK  167  A    between atoms: _397  and  _398
REMARK  168  A    between atoms: _403  and  _404
REMARK  169  A    between atoms: _406  and  _408
REMARK  170  A    between atoms: _408  and  _409
REMARK  171  A    between atoms: _408  and  _411
REMARK  172  A    between atoms: _411  and  _412
REMARK  173  A    between atoms: _412  and  _413
REMARK  174  A    between atoms: _418  and  _420
REMARK  175  A    between atoms: _420  and  _421
REMARK  176  A    between atoms: _420  and  _423
REMARK  177  A    between atoms: _423  and  _424
REMARK  178  A    between atoms: _427  and  _429
REMARK  179  A    between atoms: _429  and  _430
REMARK  180  A    between atoms: _429  and  _432
REMARK  181  A    between atoms: _432  and  _433
REMARK  182  A    between atoms: _438  and  _439
REMARK  183  A    between atoms: _441  and  _443
REMARK  184  A    between atoms: _443  and  _444
REMARK  185  A    between atoms: _443  and  _446
REMARK  186  A    between atoms: _446  and  _447
REMARK  187  A    between atoms: _447  and  _448
REMARK  188  A    between atoms: _453  and  _455
REMARK  189  A    between atoms: _455  and  _456
REMARK  190  A    between atoms: _455  and  _458
REMARK  191  A    between atoms: _458  and  _459
REMARK  192  A    between atoms: _464  and  _466
REMARK  193  A    between atoms: _466  and  _467
REMARK  194  A    between atoms: _466  and  _469
REMARK  195  A    between atoms: _469  and  _470
REMARK  196  A    between atoms: _473  and  _475
REMARK  197  A    between atoms: _475  and  _476
REMARK  198  A    between atoms: _475  and  _478
REMARK  199  A    between atoms: _478  and  _479
REMARK  200  A    between atoms: _489  and  _491
REMARK  201  A    between atoms: _491  and  _492
REMARK  202  A    between atoms: _491  and  _494
REMARK  203  A    between atoms: _494  and  _495
REMARK  204  A    between atoms: _495  and  _496
REMARK  205  A    between atoms: _501  and  _503
REMARK  206  A    between atoms: _503  and  _504
REMARK  207  A    between atoms: _503  and  _506
REMARK  208  A    between atoms: _506  and  _507
REMARK  209  A    between atoms: _509  and  _511
REMARK  210  A    between atoms: _511  and  _512
REMARK  211  A    between atoms: _511  and  _514
REMARK  212  A    between atoms: _514  and  _515
REMARK  213  A    between atoms: _518  and  _520
REMARK  214  A    between atoms: _520  and  _521
REMARK  215  A    between atoms: _520  and  _523
REMARK  216  A    between atoms: _523  and  _524
REMARK  217  A    between atoms: _527  and  _529
REMARK  218  A    between atoms: _529  and  _530
REMARK  219  A    between atoms: _529  and  _532
REMARK  220  A    between atoms: _532  and  _533
REMARK  221  A    between atoms: _536  and  _538
REMARK  222  A    between atoms: _538  and  _539
REMARK  223  A    between atoms: _538  and  _541
REMARK  224  A    between atoms: _541  and  _542
REMARK  225  A    between atoms: _545  and  _547
REMARK  226  A    between atoms: _547  and  _548
REMARK  227  A    between atoms: _550  and  _552
REMARK  228  A    between atoms: _552  and  _553
REMARK  229  A    between atoms: _552  and  _555
REMARK  230  A    between atoms: _555  and  _556
REMARK                            x       y       z     vdW  Elec       q    Type
REMARK                         _______ _______ _______ _____ _____    ______ ____
ROOT
ATOM      1  O   HOH     1      26.889  28.226  50.175  0.00  0.00    +0.000 OA
ENDROOT
TORSDOF 0
REMARK  Name = ../refined-set-2016/3fv3/3fv3_pocket.pdb
REMARK  230 active torsions:
REMARK  status: ('A' for Active; 'I' for Inactive)
REMARK    1  A    between atoms: _1  and  _3
REMARK    2  A    between atoms: _3  and  _4
REMARK    3  A    between atoms: _7  and  _8
REMARK    4  A    between atoms: _13  and  _15
REMARK    5  A    between atoms: _15  and  _16
REMARK    6  A    between atoms: _15  and  _18
REMARK    7  A    between atoms: _18  and  _19
REMARK    8  A    between atoms: _21  and  _23
REMARK    9  A    between atoms: _23  and  _24
REMARK   10  A    between atoms: _23  and  _26
REMARK   11  A    between atoms: _26  and  _27
REMARK   12  A    between atoms: _32  and  _33
REMARK   13  A    between atoms: _35  and  _37
REMARK   14  A    between atoms: _37  and  _38
REMARK   15  A    between atoms: _37  and  _40
REMARK   16  A    between atoms: _40  and  _41
REMARK   17  A    between atoms: _44  and  _46
REMARK   18  A    between atoms: _46  and  _47
REMARK   19  A    between atoms: _46  and  _49
REMARK   20  A    between atoms: _49  and  _50
REMARK   21  A    between atoms: _53  and  _55
REMARK   22  A    between atoms: _55  and  _56
REMARK   23  A    between atoms: _55  and  _58
REMARK   24  A    between atoms: _58  and  _59
REMARK   25  A    between atoms: _62  and  _64
REMARK   26  A    between atoms: _64  and  _65
REMARK   27  A    between atoms: _64  and  _67
REMARK   28  A    between atoms: _67  and  _68
REMARK   29  A    between atoms: _71  and  _73
REMARK   30  A    between atoms: _73  and  _74
REMARK   31  A    between atoms: _76  and  _78
REMARK   32  A    between atoms: _78  and  _79
REMARK   33  A    between atoms: _78  and  _81
REMARK   34  A    between atoms: _81  and  _82
REMARK   35  A    between atoms: _84  and  _86
REMARK   36  A    between atoms: _86  and  _87
REMARK   37  A    between atoms: _86  and  _89
REMARK   38  A    between atoms: _89  and  _90
REMARK   39  A    between atoms: _92  and  _94
REMARK   40  A    between atoms: _94  and  _95
REMARK   41  A    between atoms: _94  and  _97
REMARK   42  A    between atoms: _97  and  _98
REMARK   43  A    between atoms: _101  and  _103
REMARK   44  A    between atoms: _103  and  _104
REMARK   45  A    between atoms: _103  and  _106
REMARK   46  A    between atoms: _106  and  _107
REMARK   47  A    between atoms: _117  and  _119
REMARK   48  A    between atoms: _119  and  _120
REMARK   49  A    between atoms: _119  and  _122
REMARK   50  A    between atoms: _122  and  _123
REMARK   51  A    between atoms: _126  and  _128
REMARK   52  A    between atoms: _128  and  _129
REMARK   53  A    between atoms: _128  and  _131
REMARK   54  A    between atoms: _131  and  _132
REMARK   55  A    between atoms: _132  and  _133
REMARK   56  A    between atoms: _133  and  _134
REMARK   57  A    between atoms: _143  and  _145
REMARK   58  A    between atoms: _145  and  _146
REMARK   59  A    between atoms: _145  and  _148
REMARK   60  A    between atoms: _148  and  _149
REMARK   61  A    between atoms: _154  and  _155
REMARK   62  A    between atoms: _157  and  _159
REMARK   63  A    between atoms: _159  and  _160
REMARK   64  A    between atoms: _162  and  _164
REMARK   65  A    between atoms: _164  and  _165
REMARK   66  A    between atoms: _164  and  _167
REMARK   67  A    between atoms: _167  and  _168
REMARK   68  A    between atoms: _171  and  _173
REMARK   69  A    between atoms: _173  and  _174
REMARK   70  A    between atoms: _176  and  _178
REMARK   71  A    between atoms: _178  and  _179
REMARK   72  A    between atoms: _178  and  _181
REMARK   73  A    between atoms: _181  and  _182
REMARK   74  A    between atoms: _184  and  _186
REMARK   75  A    between atoms: _186  and  _187
REMARK   76  A    between atoms: _186  and  _189
REMARK   77  A    between atoms: _189  and  _190
REMARK   78  A    between atoms: _193  and  _195
REMARK   79  A    between atoms: _195  and  _196
REMARK   80  A    between atoms: _195  and  _198
REMARK   81  A    between atoms: _198  and  _199
REMARK   82  A    between atoms: _201  and  _203
REMARK   83  A    between atoms: _203  and  _204
REMARK   84  A    between atoms: _203  and  _206
REMARK   85  A    between atoms: _209  and  _211
REMARK   86  A    between atoms: _211  and  _212
REMARK   87  A    between atoms: _211  and  _214
REMARK   88  A    between atoms: _214  and  _215
REMARK   89  A    between atoms: _218  and  _220
REMARK   90  A    between atoms: _220  and  _221
REMARK   91  A    between atoms: _220  and  _223
REMARK   92  A    between atoms: _223  and  _224
REMARK   93  A    between atoms: _224  and  _225
REMARK   94  A    between atoms: _230  and  _232
REMARK   95  A    between atoms: _232  and  _233
REMARK   96  A    between atoms: _235  and  _237
REMARK   97  A    between atoms: _237  and  _238
REMARK   98  A    between atoms: _237  and  _240
REMARK   99  A    between atoms: _240  and  _241
REMARK  100  A    between atoms: _244  and  _246
REMARK  101  A    between atoms: _246  and  _247
REMARK  102  A    between atoms: _246  and  _249
REMARK  103  A    between atoms: _249  and  _250
REMARK  104  A    between atoms: _253  and  _255
REMARK  105  A    between atoms: _255  and  _256
REMARK  106  A    between atoms: _255  and  _258
REMARK  107  A    between atoms: _258  and  _259
REMARK  108  A    between atoms: _262  and  _264
REMARK  109  A    between atoms: _264  and  _265
REMARK  110  A    between atoms: _264  and  _267
REMARK  111  A    between atoms: _267  and  _268
REMARK  112  A    between atoms: _273  and  _275
REMARK  113  A    between atoms: _275  and  _276
REMARK  114  A    between atoms: _275  and  _278
REMARK  115  A    between atoms: _278  and  _279
REMARK  116  A    between atoms: _279  and  _280
REMARK  117  A    between atoms: _283  and  _285
REMARK  118  A    between atoms: _285  and  _286
REMARK  119  A    between atoms: _289  and  _291
REMARK  120  A    between atoms: _291  and  _292
REMARK  121  A    between atoms: _291  and  _294
REMARK  122  A    between atoms: _294  and  _295
REMARK  123  A    between atoms: _295  and  _296
REMARK  124  A    between atoms: _301  and  _303
REMARK  125  A    between atoms: _303  and  _304
REMARK  126  A    between atoms: _307  and  _309
REMARK  127  A    between atoms: _309  and  _310
REMARK  128  A    between atoms: _309  and  _312
REMARK  129  A    between atoms: _312  and  _313
REMARK  130  A    between atoms: _316  and  _318
REMARK  131  A    between atoms: _318  and  _319
REMARK  132  A    between atoms: _318  and  _321
REMARK  133  A    between atoms: _321  and  _322
REMARK  134  A    between atoms: _325  and  _327
REMARK  135  A    between atoms: _327  and  _328
REMARK  136  A    between atoms: _327  and  _330
REMARK  137  A    between atoms: _330  and  _331
REMARK  138  A    between atoms: _334  and  _336
REMARK  139  A    between atoms: _336  and  _337
REMARK  140  A    between atoms: _336  and  _339
REMARK  141  A    between atoms: _339  and  _340
REMARK  142  A    between atoms: _343  and  _345
REMARK  143  A    between atoms: _345  and  _346
REMARK  144  A    between atoms: _345  and  _348
REMARK  145  A    between atoms: _348  and  _349
REMARK  146  A    between atoms: _351  and  _353
REMARK  147  A    between atoms: _353  and  _354
REMARK  148  A    between atoms: _356  and  _358
REMARK  149  A    between atoms: _358  and  _359
REMARK  150  A    between atoms: _358  and  _361
REMARK  151  A    between atoms: _361  and  _362
REMARK  152  A    between atoms: _365  and  _367
REMARK  153  A    between atoms: _367  and  _368
REMARK  154  A    between atoms: _367  and  _370
REMARK  155  A    between atoms: _370  and  _371
REMARK  156  A    between atoms: _374  and  _376
REMARK  157  A    between atoms: _376  and  _377
REMARK  158  A    between atoms: _376  and  _379
REMARK  159  A    between atoms: _379  and  _380
REMARK  160  A    between atoms: _383  and  _385
REMARK  161  A    between atoms: _385  and  _386
REMARK  162  A    between atoms: _385  and  _388
REMARK  163  A    between atoms: _388  and  _389
REMARK  164  A    between atoms: _392  and  _394
REMARK  165  A    between atoms: _394  and  _395
REMARK  166  A    between atoms: _394  and  _397
REMARK  167  A    between atoms: _397  and  _398
REMARK  168  A    between atoms: _403  and  _404
REMARK  169  A    between atoms: _406  and  _408
REMARK  170  A    between atoms: _408  and  _409
REMARK  171  A    between atoms: _408  and  _411
REMARK  172  A    between atoms: _411  and  _412
REMARK  173  A    between atoms: _412  and  _413
REMARK  174  A    between atoms: _418  and  _420
REMARK  175  A    between atoms: _420  and  _421
REMARK  176  A    between atoms: _420  and  _423
REMARK  177  A    between atoms: _423  and  _424
REMARK  178  A    between atoms: _427  and  _429
REMARK  179  A    between atoms: _429  and  _430
REMARK  180  A    between atoms: _429  and  _432
REMARK  181  A    between atoms: _432  and  _433
REMARK  182  A    between atoms: _438  and  _439
REMARK  183  A    between atoms: _441  and  _443
REMARK  184  A    between atoms: _443  and  _444
REMARK  185  A    between atoms: _443  and  _446
REMARK  186  A    between atoms: _446  and  _447
REMARK  187  A    between atoms: _447  and  _448
REMARK  188  A    between atoms: _453  and  _455
REMARK  189  A    between atoms: _455  and  _456
REMARK  190  A    between atoms: _455  and  _458
REMARK  191  A    between atoms: _458  and  _459
REMARK  192  A    between atoms: _464  and  _466
REMARK  193  A    between atoms: _466  and  _467
REMARK  194  A    between atoms: _466  and  _469
REMARK  195  A    between atoms: _469  and  _470
REMARK  196  A    between atoms: _473  and  _475
REMARK  197  A    between atoms: _475  and  _476
REMARK  198  A    between atoms: _475  and  _478
REMARK  199  A    between atoms: _478  and  _479
REMARK  200  A    between atoms: _489  and  _491
REMARK  201  A    between atoms: _491  and  _492
REMARK  202  A    between atoms: _491  and  _494
REMARK  203  A    between atoms: _494  and  _495
REMARK  204  A    between atoms: _495  and  _496
REMARK  205  A    between atoms: _501  and  _503
REMARK  206  A    between atoms: _503  and  _504
REMARK  207  A    between atoms: _503  and  _506
REMARK  208  A    between atoms: _506  and  _507
REMARK  209  A    between atoms: _509  and  _511
REMARK  210  A    between atoms: _511  and  _512
REMARK  211  A    between atoms: _511  and  _514
REMARK  212  A    between atoms: _514  and  _515
REMARK  213  A    between atoms: _518  and  _520
REMARK  214  A    between atoms: _520  and  _521
REMARK  215  A    between atoms: _520  and  _523
REMARK  216  A    between atoms: _523  and  _524
REMARK  217  A    between atoms: _527  and  _529
REMARK  218  A    between atoms: _529  and  _530
REMARK  219  A    between atoms: _529  and  _532
REMARK  220  A    between atoms: _532  and  _533
REMARK  221  A    between atoms: _536  and  _538
REMARK  222  A    between atoms: _538  and  _539
REMARK  223  A    between atoms: _538  and  _541
REMARK  224  A    between atoms: _541  and  _542
REMARK  225  A    between atoms: _545  and  _547
REMARK  226  A    between atoms: _547  and  _548
REMARK  227  A    between atoms: _550  and  _552
REMARK  228  A    between atoms: _552  and  _553
REMARK  229  A    between atoms: _552  and  _555
REMARK  230  A    between atoms: _555  and  _556
REMARK                            x       y       z     vdW  Elec       q    Type
REMARK                         _______ _______ _______ _____ _____    ______ ____
ROOT
ATOM      1  O   HOH     1      23.490  28.054  43.554  0.00  0.00    +0.000 OA
ENDROOT
TORSDOF 0
REMARK  Name = ../refined-set-2016/3fv3/3fv3_pocket.pdb
REMARK  230 active torsions:
REMARK  status: ('A' for Active; 'I' for Inactive)
REMARK    1  A    between atoms: _1  and  _3
REMARK    2  A    between atoms: _3  and  _4
REMARK    3  A    between atoms: _7  and  _8
REMARK    4  A    between atoms: _13  and  _15
REMARK    5  A    between atoms: _15  and  _16
REMARK    6  A    between atoms: _15  and  _18
REMARK    7  A    between atoms: _18  and  _19
REMARK    8  A    between atoms: _21  and  _23
REMARK    9  A    between atoms: _23  and  _24
REMARK   10  A    between atoms: _23  and  _26
REMARK   11  A    between atoms: _26  and  _27
REMARK   12  A    between atoms: _32  and  _33
REMARK   13  A    between atoms: _35  and  _37
REMARK   14  A    between atoms: _37  and  _38
REMARK   15  A    between atoms: _37  and  _40
REMARK   16  A    between atoms: _40  and  _41
REMARK   17  A    between atoms: _44  and  _46
REMARK   18  A    between atoms: _46  and  _47
REMARK   19  A    between atoms: _46  and  _49
REMARK   20  A    between atoms: _49  and  _50
REMARK   21  A    between atoms: _53  and  _55
REMARK   22  A    between atoms: _55  and  _56
REMARK   23  A    between atoms: _55  and  _58
REMARK   24  A    between atoms: _58  and  _59
REMARK   25  A    between atoms: _62  and  _64
REMARK   26  A    between atoms: _64  and  _65
REMARK   27  A    between atoms: _64  and  _67
REMARK   28  A    between atoms: _67  and  _68
REMARK   29  A    between atoms: _71  and  _73
REMARK   30  A    between atoms: _73  and  _74
REMARK   31  A    between atoms: _76  and  _78
REMARK   32  A    between atoms: _78  and  _79
REMARK   33  A    between atoms: _78  and  _81
REMARK   34  A    between atoms: _81  and  _82
REMARK   35  A    between atoms: _84  and  _86
REMARK   36  A    between atoms: _86  and  _87
REMARK   37  A    between atoms: _86  and  _89
REMARK   38  A    between atoms: _89  and  _90
REMARK   39  A    between atoms: _92  and  _94
REMARK   40  A    between atoms: _94  and  _95
REMARK   41  A    between atoms: _94  and  _97
REMARK   42  A    between atoms: _97  and  _98
REMARK   43  A    between atoms: _101  and  _103
REMARK   44  A    between atoms: _103  and  _104
REMARK   45  A    between atoms: _103  and  _106
REMARK   46  A    between atoms: _106  and  _107
REMARK   47  A    between atoms: _117  and  _119
REMARK   48  A    between atoms: _119  and  _120
REMARK   49  A    between atoms: _119  and  _122
REMARK   50  A    between atoms: _122  and  _123
REMARK   51  A    between atoms: _126  and  _128
REMARK   52  A    between atoms: _128  and  _129
REMARK   53  A    between atoms: _128  and  _131
REMARK   54  A    between atoms: _131  and  _132
REMARK   55  A    between atoms: _132  and  _133
REMARK   56  A    between atoms: _133  and  _134
REMARK   57  A    between atoms: _143  and  _145
REMARK   58  A    between atoms: _145  and  _146
REMARK   59  A    between atoms: _145  and  _148
REMARK   60  A    between atoms: _148  and  _149
REMARK   61  A    between atoms: _154  and  _155
REMARK   62  A    between atoms: _157  and  _159
REMARK   63  A    between atoms: _159  and  _160
REMARK   64  A    between atoms: _162  and  _164
REMARK   65  A    between atoms: _164  and  _165
REMARK   66  A    between atoms: _164  and  _167
REMARK   67  A    between atoms: _167  and  _168
REMARK   68  A    between atoms: _171  and  _173
REMARK   69  A    between atoms: _173  and  _174
REMARK   70  A    between atoms: _176  and  _178
REMARK   71  A    between atoms: _178  and  _179
REMARK   72  A    between atoms: _178  and  _181
REMARK   73  A    between atoms: _181  and  _182
REMARK   74  A    between atoms: _184  and  _186
REMARK   75  A    between atoms: _186  and  _187
REMARK   76  A    between atoms: _186  and  _189
REMARK   77  A    between atoms: _189  and  _190
REMARK   78  A    between atoms: _193  and  _195
REMARK   79  A    between atoms: _195  and  _196
REMARK   80  A    between atoms: _195  and  _198
REMARK   81  A    between atoms: _198  and  _199
REMARK   82  A    between atoms: _201  and  _203
REMARK   83  A    between atoms: _203  and  _204
REMARK   84  A    between atoms: _203  and  _206
REMARK   85  A    between atoms: _209  and  _211
REMARK   86  A    between atoms: _211  and  _212
REMARK   87  A    between atoms: _211  and  _214
REMARK   88  A    between atoms: _214  and  _215
REMARK   89  A    between atoms: _218  and  _220
REMARK   90  A    between atoms: _220  and  _221
REMARK   91  A    between atoms: _220  and  _223
REMARK   92  A    between atoms: _223  and  _224
REMARK   93  A    between atoms: _224  and  _225
REMARK   94  A    between atoms: _230  and  _232
REMARK   95  A    between atoms: _232  and  _233
REMARK   96  A    between atoms: _235  and  _237
REMARK   97  A    between atoms: _237  and  _238
REMARK   98  A    between atoms: _237  and  _240
REMARK   99  A    between atoms: _240  and  _241
REMARK  100  A    between atoms: _244  and  _246
REMARK  101  A    between atoms: _246  and  _247
REMARK  102  A    between atoms: _246  and  _249
REMARK  103  A    between atoms: _249  and  _250
REMARK  104  A    between atoms: _253  and  _255
REMARK  105  A    between atoms: _255  and  _256
REMARK  106  A    between atoms: _255  and  _258
REMARK  107  A    between atoms: _258  and  _259
REMARK  108  A    between atoms: _262  and  _264
REMARK  109  A    between atoms: _264  and  _265
REMARK  110  A    between atoms: _264  and  _267
REMARK  111  A    between atoms: _267  and  _268
REMARK  112  A    between atoms: _273  and  _275
REMARK  113  A    between atoms: _275  and  _276
REMARK  114  A    between atoms: _275  and  _278
REMARK  115  A    between atoms: _278  and  _279
REMARK  116  A    between atoms: _279  and  _280
REMARK  117  A    between atoms: _283  and  _285
REMARK  118  A    between atoms: _285  and  _286
REMARK  119  A    between atoms: _289  and  _291
REMARK  120  A    between atoms: _291  and  _292
REMARK  121  A    between atoms: _291  and  _294
REMARK  122  A    between atoms: _294  and  _295
REMARK  123  A    between atoms: _295  and  _296
REMARK  124  A    between atoms: _301  and  _303
REMARK  125  A    between atoms: _303  and  _304
REMARK  126  A    between atoms: _307  and  _309
REMARK  127  A    between atoms: _309  and  _310
REMARK  128  A    between atoms: _309  and  _312
REMARK  129  A    between atoms: _312  and  _313
REMARK  130  A    between atoms: _316  and  _318
REMARK  131  A    between atoms: _318  and  _319
REMARK  132  A    between atoms: _318  and  _321
REMARK  133  A    between atoms: _321  and  _322
REMARK  134  A    between atoms: _325  and  _327
REMARK  135  A    between atoms: _327  and  _328
REMARK  136  A    between atoms: _327  and  _330
REMARK  137  A    between atoms: _330  and  _331
REMARK  138  A    between atoms: _334  and  _336
REMARK  139  A    between atoms: _336  and  _337
REMARK  140  A    between atoms: _336  and  _339
REMARK  141  A    between atoms: _339  and  _340
REMARK  142  A    between atoms: _343  and  _345
REMARK  143  A    between atoms: _345  and  _346
REMARK  144  A    between atoms: _345  and  _348
REMARK  145  A    between atoms: _348  and  _349
REMARK  146  A    between atoms: _351  and  _353
REMARK  147  A    between atoms: _353  and  _354
REMARK  148  A    between atoms: _356  and  _358
REMARK  149  A    between atoms: _358  and  _359
REMARK  150  A    between atoms: _358  and  _361
REMARK  151  A    between atoms: _361  and  _362
REMARK  152  A    between atoms: _365  and  _367
REMARK  153  A    between atoms: _367  and  _368
REMARK  154  A    between atoms: _367  and  _370
REMARK  155  A    between atoms: _370  and  _371
REMARK  156  A    between atoms: _374  and  _376
REMARK  157  A    between atoms: _376  and  _377
REMARK  158  A    between atoms: _376  and  _379
REMARK  159  A    between atoms: _379  and  _380
REMARK  160  A    between atoms: _383  and  _385
REMARK  161  A    between atoms: _385  and  _386
REMARK  162  A    between atoms: _385  and  _388
REMARK  163  A    between atoms: _388  and  _389
REMARK  164  A    between atoms: _392  and  _394
REMARK  165  A    between atoms: _394  and  _395
REMARK  166  A    between atoms: _394  and  _397
REMARK  167  A    between atoms: _397  and  _398
REMARK  168  A    between atoms: _403  and  _404
REMARK  169  A    between atoms: _406  and  _408
REMARK  170  A    between atoms: _408  and  _409
REMARK  171  A    between atoms: _408  and  _411
REMARK  172  A    between atoms: _411  and  _412
REMARK  173  A    between atoms: _412  and  _413
REMARK  174  A    between atoms: _418  and  _420
REMARK  175  A    between atoms: _420  and  _421
REMARK  176  A    between atoms: _420  and  _423
REMARK  177  A    between atoms: _423  and  _424
REMARK  178  A    between atoms: _427  and  _429
REMARK  179  A    between atoms: _429  and  _430
REMARK  180  A    between atoms: _429  and  _432
REMARK  181  A    between atoms: _432  and  _433
REMARK  182  A    between atoms: _438  and  _439
REMARK  183  A    between atoms: _441  and  _443
REMARK  184  A    between atoms: _443  and  _444
REMARK  185  A    between atoms: _443  and  _446
REMARK  186  A    between atoms: _446  and  _447
REMARK  187  A    between atoms: _447  and  _448
REMARK  188  A    between atoms: _453  and  _455
REMARK  189  A    between atoms: _455  and  _456
REMARK  190  A    between atoms: _455  and  _458
REMARK  191  A    between atoms: _458  and  _459
REMARK  192  A    between atoms: _464  and  _466
REMARK  193  A    between atoms: _466  and  _467
REMARK  194  A    between atoms: _466  and  _469
REMARK  195  A    between atoms: _469  and  _470
REMARK  196  A    between atoms: _473  and  _475
REMARK  197  A    between atoms: _475  and  _476
REMARK  198  A    between atoms: _475  and  _478
REMARK  199  A    between atoms: _478  and  _479
REMARK  200  A    between atoms: _489  and  _491
REMARK  201  A    between atoms: _491  and  _492
REMARK  202  A    between atoms: _491  and  _494
REMARK  203  A    between atoms: _494  and  _495
REMARK  204  A    between atoms: _495  and  _496
REMARK  205  A    between atoms: _501  and  _503
REMARK  206  A    between atoms: _503  and  _504
REMARK  207  A    between atoms: _503  and  _506
REMARK  208  A    between atoms: _506  and  _507
REMARK  209  A    between atoms: _509  and  _511
REMARK  210  A    between atoms: _511  and  _512
REMARK  211  A    between atoms: _511  and  _514
REMARK  212  A    between atoms: _514  and  _515
REMARK  213  A    between atoms: _518  and  _520
REMARK  214  A    between atoms: _520  and  _521
REMARK  215  A    between atoms: _520  and  _523
REMARK  216  A    between atoms: _523  and  _524
REMARK  217  A    between atoms: _527  and  _529
REMARK  218  A    between atoms: _529  and  _530
REMARK  219  A    between atoms: _529  and  _532
REMARK  220  A    between atoms: _532  and  _533
REMARK  221  A    between atoms: _536  and  _538
REMARK  222  A    between atoms: _538  and  _539
REMARK  223  A    between atoms: _538  and  _541
REMARK  224  A    between atoms: _541  and  _542
REMARK  225  A    between atoms: _545  and  _547
REMARK  226  A    between atoms: _547  and  _548
REMARK  227  A    between atoms: _550  and  _552
REMARK  228  A    between atoms: _552  and  _553
REMARK  229  A    between atoms: _552  and  _555
REMARK  230  A    between atoms: _555  and  _556
REMARK                            x       y       z     vdW  Elec       q    Type
REMARK                         _______ _______ _______ _____ _____    ______ ____
ROOT
ATOM      1  O   HOH     1      13.291  26.524  55.118  0.00  0.00    +0.000 OA
ENDROOT
TORSDOF 0
REMARK  Name = ../refined-set-2016/3fv3/3fv3_pocket.pdb
REMARK  230 active torsions:
REMARK  status: ('A' for Active; 'I' for Inactive)
REMARK    1  A    between atoms: _1  and  _3
REMARK    2  A    between atoms: _3  and  _4
REMARK    3  A    between atoms: _7  and  _8
REMARK    4  A    between atoms: _13  and  _15
REMARK    5  A    between atoms: _15  and  _16
REMARK    6  A    between atoms: _15  and  _18
REMARK    7  A    between atoms: _18  and  _19
REMARK    8  A    between atoms: _21  and  _23
REMARK    9  A    between atoms: _23  and  _24
REMARK   10  A    between atoms: _23  and  _26
REMARK   11  A    between atoms: _26  and  _27
REMARK   12  A    between atoms: _32  and  _33
REMARK   13  A    between atoms: _35  and  _37
REMARK   14  A    between atoms: _37  and  _38
REMARK   15  A    between atoms: _37  and  _40
REMARK   16  A    between atoms: _40  and  _41
REMARK   17  A    between atoms: _44  and  _46
REMARK   18  A    between atoms: _46  and  _47
REMARK   19  A    between atoms: _46  and  _49
REMARK   20  A    between atoms: _49  and  _50
REMARK   21  A    between atoms: _53  and  _55
REMARK   22  A    between atoms: _55  and  _56
REMARK   23  A    between atoms: _55  and  _58
REMARK   24  A    between atoms: _58  and  _59
REMARK   25  A    between atoms: _62  and  _64
REMARK   26  A    between atoms: _64  and  _65
REMARK   27  A    between atoms: _64  and  _67
REMARK   28  A    between atoms: _67  and  _68
REMARK   29  A    between atoms: _71  and  _73
REMARK   30  A    between atoms: _73  and  _74
REMARK   31  A    between atoms: _76  and  _78
REMARK   32  A    between atoms: _78  and  _79
REMARK   33  A    between atoms: _78  and  _81
REMARK   34  A    between atoms: _81  and  _82
REMARK   35  A    between atoms: _84  and  _86
REMARK   36  A    between atoms: _86  and  _87
REMARK   37  A    between atoms: _86  and  _89
REMARK   38  A    between atoms: _89  and  _90
REMARK   39  A    between atoms: _92  and  _94
REMARK   40  A    between atoms: _94  and  _95
REMARK   41  A    between atoms: _94  and  _97
REMARK   42  A    between atoms: _97  and  _98
REMARK   43  A    between atoms: _101  and  _103
REMARK   44  A    between atoms: _103  and  _104
REMARK   45  A    between atoms: _103  and  _106
REMARK   46  A    between atoms: _106  and  _107
REMARK   47  A    between atoms: _117  and  _119
REMARK   48  A    between atoms: _119  and  _120
REMARK   49  A    between atoms: _119  and  _122
REMARK   50  A    between atoms: _122  and  _123
REMARK   51  A    between atoms: _126  and  _128
REMARK   52  A    between atoms: _128  and  _129
REMARK   53  A    between atoms: _128  and  _131
REMARK   54  A    between atoms: _131  and  _132
REMARK   55  A    between atoms: _132  and  _133
REMARK   56  A    between atoms: _133  and  _134
REMARK   57  A    between atoms: _143  and  _145
REMARK   58  A    between atoms: _145  and  _146
REMARK   59  A    between atoms: _145  and  _148
REMARK   60  A    between atoms: _148  and  _149
REMARK   61  A    between atoms: _154  and  _155
REMARK   62  A    between atoms: _157  and  _159
REMARK   63  A    between atoms: _159  and  _160
REMARK   64  A    between atoms: _162  and  _164
REMARK   65  A    between atoms: _164  and  _165
REMARK   66  A    between atoms: _164  and  _167
REMARK   67  A    between atoms: _167  and  _168
REMARK   68  A    between atoms: _171  and  _173
REMARK   69  A    between atoms: _173  and  _174
REMARK   70  A    between atoms: _176  and  _178
REMARK   71  A    between atoms: _178  and  _179
REMARK   72  A    between atoms: _178  and  _181
REMARK   73  A    between atoms: _181  and  _182
REMARK   74  A    between atoms: _184  and  _186
REMARK   75  A    between atoms: _186  and  _187
REMARK   76  A    between atoms: _186  and  _189
REMARK   77  A    between atoms: _189  and  _190
REMARK   78  A    between atoms: _193  and  _195
REMARK   79  A    between atoms: _195  and  _196
REMARK   80  A    between atoms: _195  and  _198
REMARK   81  A    between atoms: _198  and  _199
REMARK   82  A    between atoms: _201  and  _203
REMARK   83  A    between atoms: _203  and  _204
REMARK   84  A    between atoms: _203  and  _206
REMARK   85  A    between atoms: _209  and  _211
REMARK   86  A    between atoms: _211  and  _212
REMARK   87  A    between atoms: _211  and  _214
REMARK   88  A    between atoms: _214  and  _215
REMARK   89  A    between atoms: _218  and  _220
REMARK   90  A    between atoms: _220  and  _221
REMARK   91  A    between atoms: _220  and  _223
REMARK   92  A    between atoms: _223  and  _224
REMARK   93  A    between atoms: _224  and  _225
REMARK   94  A    between atoms: _230  and  _232
REMARK   95  A    between atoms: _232  and  _233
REMARK   96  A    between atoms: _235  and  _237
REMARK   97  A    between atoms: _237  and  _238
REMARK   98  A    between atoms: _237  and  _240
REMARK   99  A    between atoms: _240  and  _241
REMARK  100  A    between atoms: _244  and  _246
REMARK  101  A    between atoms: _246  and  _247
REMARK  102  A    between atoms: _246  and  _249
REMARK  103  A    between atoms: _249  and  _250
REMARK  104  A    between atoms: _253  and  _255
REMARK  105  A    between atoms: _255  and  _256
REMARK  106  A    between atoms: _255  and  _258
REMARK  107  A    between atoms: _258  and  _259
REMARK  108  A    between atoms: _262  and  _264
REMARK  109  A    between atoms: _264  and  _265
REMARK  110  A    between atoms: _264  and  _267
REMARK  111  A    between atoms: _267  and  _268
REMARK  112  A    between atoms: _273  and  _275
REMARK  113  A    between atoms: _275  and  _276
REMARK  114  A    between atoms: _275  and  _278
REMARK  115  A    between atoms: _278  and  _279
REMARK  116  A    between atoms: _279  and  _280
REMARK  117  A    between atoms: _283  and  _285
REMARK  118  A    between atoms: _285  and  _286
REMARK  119  A    between atoms: _289  and  _291
REMARK  120  A    between atoms: _291  and  _292
REMARK  121  A    between atoms: _291  and  _294
REMARK  122  A    between atoms: _294  and  _295
REMARK  123  A    between atoms: _295  and  _296
REMARK  124  A    between atoms: _301  and  _303
REMARK  125  A    between atoms: _303  and  _304
REMARK  126  A    between atoms: _307  and  _309
REMARK  127  A    between atoms: _309  and  _310
REMARK  128  A    between atoms: _309  and  _312
REMARK  129  A    between atoms: _312  and  _313
REMARK  130  A    between atoms: _316  and  _318
REMARK  131  A    between atoms: _318  and  _319
REMARK  132  A    between atoms: _318  and  _321
REMARK  133  A    between atoms: _321  and  _322
REMARK  134  A    between atoms: _325  and  _327
REMARK  135  A    between atoms: _327  and  _328
REMARK  136  A    between atoms: _327  and  _330
REMARK  137  A    between atoms: _330  and  _331
REMARK  138  A    between atoms: _334  and  _336
REMARK  139  A    between atoms: _336  and  _337
REMARK  140  A    between atoms: _336  and  _339
REMARK  141  A    between atoms: _339  and  _340
REMARK  142  A    between atoms: _343  and  _345
REMARK  143  A    between atoms: _345  and  _346
REMARK  144  A    between atoms: _345  and  _348
REMARK  145  A    between atoms: _348  and  _349
REMARK  146  A    between atoms: _351  and  _353
REMARK  147  A    between atoms: _353  and  _354
REMARK  148  A    between atoms: _356  and  _358
REMARK  149  A    between atoms: _358  and  _359
REMARK  150  A    between atoms: _358  and  _361
REMARK  151  A    between atoms: _361  and  _362
REMARK  152  A    between atoms: _365  and  _367
REMARK  153  A    between atoms: _367  and  _368
REMARK  154  A    between atoms: _367  and  _370
REMARK  155  A    between atoms: _370  and  _371
REMARK  156  A    between atoms: _374  and  _376
REMARK  157  A    between atoms: _376  and  _377
REMARK  158  A    between atoms: _376  and  _379
REMARK  159  A    between atoms: _379  and  _380
REMARK  160  A    between atoms: _383  and  _385
REMARK  161  A    between atoms: _385  and  _386
REMARK  162  A    between atoms: _385  and  _388
REMARK  163  A    between atoms: _388  and  _389
REMARK  164  A    between atoms: _392  and  _394
REMARK  165  A    between atoms: _394  and  _395
REMARK  166  A    between atoms: _394  and  _397
REMARK  167  A    between atoms: _397  and  _398
REMARK  168  A    between atoms: _403  and  _404
REMARK  169  A    between atoms: _406  and  _408
REMARK  170  A    between atoms: _408  and  _409
REMARK  171  A    between atoms: _408  and  _411
REMARK  172  A    between atoms: _411  and  _412
REMARK  173  A    between atoms: _412  and  _413
REMARK  174  A    between atoms: _418  and  _420
REMARK  175  A    between atoms: _420  and  _421
REMARK  176  A    between atoms: _420  and  _423
REMARK  177  A    between atoms: _423  and  _424
REMARK  178  A    between atoms: _427  and  _429
REMARK  179  A    between atoms: _429  and  _430
REMARK  180  A    between atoms: _429  and  _432
REMARK  181  A    between atoms: _432  and  _433
REMARK  182  A    between atoms: _438  and  _439
REMARK  183  A    between atoms: _441  and  _443
REMARK  184  A    between atoms: _443  and  _444
REMARK  185  A    between atoms: _443  and  _446
REMARK  186  A    between atoms: _446  and  _447
REMARK  187  A    between atoms: _447  and  _448
REMARK  188  A    between atoms: _453  and  _455
REMARK  189  A    between atoms: _455  and  _456
REMARK  190  A    between atoms: _455  and  _458
REMARK  191  A    between atoms: _458  and  _459
REMARK  192  A    between atoms: _464  and  _466
REMARK  193  A    between atoms: _466  and  _467
REMARK  194  A    between atoms: _466  and  _469
REMARK  195  A    between atoms: _469  and  _470
REMARK  196  A    between atoms: _473  and  _475
REMARK  197  A    between atoms: _475  and  _476
REMARK  198  A    between atoms: _475  and  _478
REMARK  199  A    between atoms: _478  and  _479
REMARK  200  A    between atoms: _489  and  _491
REMARK  201  A    between atoms: _491  and  _492
REMARK  202  A    between atoms: _491  and  _494
REMARK  203  A    between atoms: _494  and  _495
REMARK  204  A    between atoms: _495  and  _496
REMARK  205  A    between atoms: _501  and  _503
REMARK  206  A    between atoms: _503  and  _504
REMARK  207  A    between atoms: _503  and  _506
REMARK  208  A    between atoms: _506  and  _507
REMARK  209  A    between atoms: _509  and  _511
REMARK  210  A    between atoms: _511  and  _512
REMARK  211  A    between atoms: _511  and  _514
REMARK  212  A    between atoms: _514  and  _515
REMARK  213  A    between atoms: _518  and  _520
REMARK  214  A    between atoms: _520  and  _521
REMARK  215  A    between atoms: _520  and  _523
REMARK  216  A    between atoms: _523  and  _524
REMARK  217  A    between atoms: _527  and  _529
REMARK  218  A    between atoms: _529  and  _530
REMARK  219  A    between atoms: _529  and  _532
REMARK  220  A    between atoms: _532  and  _533
REMARK  221  A    between atoms: _536  and  _538
REMARK  222  A    between atoms: _538  and  _539
REMARK  223  A    between atoms: _538  and  _541
REMARK  224  A    between atoms: _541  and  _542
REMARK  225  A    between atoms: _545  and  _547
REMARK  226  A    between atoms: _547  and  _548
REMARK  227  A    between atoms: _550  and  _552
REMARK  228  A    between atoms: _552  and  _553
REMARK  229  A    between atoms: _552  and  _555
REMARK  230  A    between atoms: _555  and  _556
REMARK                            x       y       z     vdW  Elec       q    Type
REMARK                         _______ _______ _______ _____ _____    ______ ____
ROOT
ATOM      1  O   HOH     1      22.107  33.127  67.685  0.00  0.00    +0.000 OA
ENDROOT
TORSDOF 0
REMARK  Name = ../refined-set-2016/3fv3/3fv3_pocket.pdb
REMARK  230 active torsions:
REMARK  status: ('A' for Active; 'I' for Inactive)
REMARK    1  A    between atoms: _1  and  _3
REMARK    2  A    between atoms: _3  and  _4
REMARK    3  A    between atoms: _7  and  _8
REMARK    4  A    between atoms: _13  and  _15
REMARK    5  A    between atoms: _15  and  _16
REMARK    6  A    between atoms: _15  and  _18
REMARK    7  A    between atoms: _18  and  _19
REMARK    8  A    between atoms: _21  and  _23
REMARK    9  A    between atoms: _23  and  _24
REMARK   10  A    between atoms: _23  and  _26
REMARK   11  A    between atoms: _26  and  _27
REMARK   12  A    between atoms: _32  and  _33
REMARK   13  A    between atoms: _35  and  _37
REMARK   14  A    between atoms: _37  and  _38
REMARK   15  A    between atoms: _37  and  _40
REMARK   16  A    between atoms: _40  and  _41
REMARK   17  A    between atoms: _44  and  _46
REMARK   18  A    between atoms: _46  and  _47
REMARK   19  A    between atoms: _46  and  _49
REMARK   20  A    between atoms: _49  and  _50
REMARK   21  A    between atoms: _53  and  _55
REMARK   22  A    between atoms: _55  and  _56
REMARK   23  A    between atoms: _55  and  _58
REMARK   24  A    between atoms: _58  and  _59
REMARK   25  A    between atoms: _62  and  _64
REMARK   26  A    between atoms: _64  and  _65
REMARK   27  A    between atoms: _64  and  _67
REMARK   28  A    between atoms: _67  and  _68
REMARK   29  A    between atoms: _71  and  _73
REMARK   30  A    between atoms: _73  and  _74
REMARK   31  A    between atoms: _76  and  _78
REMARK   32  A    between atoms: _78  and  _79
REMARK   33  A    between atoms: _78  and  _81
REMARK   34  A    between atoms: _81  and  _82
REMARK   35  A    between atoms: _84  and  _86
REMARK   36  A    between atoms: _86  and  _87
REMARK   37  A    between atoms: _86  and  _89
REMARK   38  A    between atoms: _89  and  _90
REMARK   39  A    between atoms: _92  and  _94
REMARK   40  A    between atoms: _94  and  _95
REMARK   41  A    between atoms: _94  and  _97
REMARK   42  A    between atoms: _97  and  _98
REMARK   43  A    between atoms: _101  and  _103
REMARK   44  A    between atoms: _103  and  _104
REMARK   45  A    between atoms: _103  and  _106
REMARK   46  A    between atoms: _106  and  _107
REMARK   47  A    between atoms: _117  and  _119
REMARK   48  A    between atoms: _119  and  _120
REMARK   49  A    between atoms: _119  and  _122
REMARK   50  A    between atoms: _122  and  _123
REMARK   51  A    between atoms: _126  and  _128
REMARK   52  A    between atoms: _128  and  _129
REMARK   53  A    between atoms: _128  and  _131
REMARK   54  A    between atoms: _131  and  _132
REMARK   55  A    between atoms: _132  and  _133
REMARK   56  A    between atoms: _133  and  _134
REMARK   57  A    between atoms: _143  and  _145
REMARK   58  A    between atoms: _145  and  _146
REMARK   59  A    between atoms: _145  and  _148
REMARK   60  A    between atoms: _148  and  _149
REMARK   61  A    between atoms: _154  and  _155
REMARK   62  A    between atoms: _157  and  _159
REMARK   63  A    between atoms: _159  and  _160
REMARK   64  A    between atoms: _162  and  _164
REMARK   65  A    between atoms: _164  and  _165
REMARK   66  A    between atoms: _164  and  _167
REMARK   67  A    between atoms: _167  and  _168
REMARK   68  A    between atoms: _171  and  _173
REMARK   69  A    between atoms: _173  and  _174
REMARK   70  A    between atoms: _176  and  _178
REMARK   71  A    between atoms: _178  and  _179
REMARK   72  A    between atoms: _178  and  _181
REMARK   73  A    between atoms: _181  and  _182
REMARK   74  A    between atoms: _184  and  _186
REMARK   75  A    between atoms: _186  and  _187
REMARK   76  A    between atoms: _186  and  _189
REMARK   77  A    between atoms: _189  and  _190
REMARK   78  A    between atoms: _193  and  _195
REMARK   79  A    between atoms: _195  and  _196
REMARK   80  A    between atoms: _195  and  _198
REMARK   81  A    between atoms: _198  and  _199
REMARK   82  A    between atoms: _201  and  _203
REMARK   83  A    between atoms: _203  and  _204
REMARK   84  A    between atoms: _203  and  _206
REMARK   85  A    between atoms: _209  and  _211
REMARK   86  A    between atoms: _211  and  _212
REMARK   87  A    between atoms: _211  and  _214
REMARK   88  A    between atoms: _214  and  _215
REMARK   89  A    between atoms: _218  and  _220
REMARK   90  A    between atoms: _220  and  _221
REMARK   91  A    between atoms: _220  and  _223
REMARK   92  A    between atoms: _223  and  _224
REMARK   93  A    between atoms: _224  and  _225
REMARK   94  A    between atoms: _230  and  _232
REMARK   95  A    between atoms: _232  and  _233
REMARK   96  A    between atoms: _235  and  _237
REMARK   97  A    between atoms: _237  and  _238
REMARK   98  A    between atoms: _237  and  _240
REMARK   99  A    between atoms: _240  and  _241
REMARK  100  A    between atoms: _244  and  _246
REMARK  101  A    between atoms: _246  and  _247
REMARK  102  A    between atoms: _246  and  _249
REMARK  103  A    between atoms: _249  and  _250
REMARK  104  A    between atoms: _253  and  _255
REMARK  105  A    between atoms: _255  and  _256
REMARK  106  A    between atoms: _255  and  _258
REMARK  107  A    between atoms: _258  and  _259
REMARK  108  A    between atoms: _262  and  _264
REMARK  109  A    between atoms: _264  and  _265
REMARK  110  A    between atoms: _264  and  _267
REMARK  111  A    between atoms: _267  and  _268
REMARK  112  A    between atoms: _273  and  _275
REMARK  113  A    between atoms: _275  and  _276
REMARK  114  A    between atoms: _275  and  _278
REMARK  115  A    between atoms: _278  and  _279
REMARK  116  A    between atoms: _279  and  _280
REMARK  117  A    between atoms: _283  and  _285
REMARK  118  A    between atoms: _285  and  _286
REMARK  119  A    between atoms: _289  and  _291
REMARK  120  A    between atoms: _291  and  _292
REMARK  121  A    between atoms: _291  and  _294
REMARK  122  A    between atoms: _294  and  _295
REMARK  123  A    between atoms: _295  and  _296
REMARK  124  A    between atoms: _301  and  _303
REMARK  125  A    between atoms: _303  and  _304
REMARK  126  A    between atoms: _307  and  _309
REMARK  127  A    between atoms: _309  and  _310
REMARK  128  A    between atoms: _309  and  _312
REMARK  129  A    between atoms: _312  and  _313
REMARK  130  A    between atoms: _316  and  _318
REMARK  131  A    between atoms: _318  and  _319
REMARK  132  A    between atoms: _318  and  _321
REMARK  133  A    between atoms: _321  and  _322
REMARK  134  A    between atoms: _325  and  _327
REMARK  135  A    between atoms: _327  and  _328
REMARK  136  A    between atoms: _327  and  _330
REMARK  137  A    between atoms: _330  and  _331
REMARK  138  A    between atoms: _334  and  _336
REMARK  139  A    between atoms: _336  and  _337
REMARK  140  A    between atoms: _336  and  _339
REMARK  141  A    between atoms: _339  and  _340
REMARK  142  A    between atoms: _343  and  _345
REMARK  143  A    between atoms: _345  and  _346
REMARK  144  A    between atoms: _345  and  _348
REMARK  145  A    between atoms: _348  and  _349
REMARK  146  A    between atoms: _351  and  _353
REMARK  147  A    between atoms: _353  and  _354
REMARK  148  A    between atoms: _356  and  _358
REMARK  149  A    between atoms: _358  and  _359
REMARK  150  A    between atoms: _358  and  _361
REMARK  151  A    between atoms: _361  and  _362
REMARK  152  A    between atoms: _365  and  _367
REMARK  153  A    between atoms: _367  and  _368
REMARK  154  A    between atoms: _367  and  _370
REMARK  155  A    between atoms: _370  and  _371
REMARK  156  A    between atoms: _374  and  _376
REMARK  157  A    between atoms: _376  and  _377
REMARK  158  A    between atoms: _376  and  _379
REMARK  159  A    between atoms: _379  and  _380
REMARK  160  A    between atoms: _383  and  _385
REMARK  161  A    between atoms: _385  and  _386
REMARK  162  A    between atoms: _385  and  _388
REMARK  163  A    between atoms: _388  and  _389
REMARK  164  A    between atoms: _392  and  _394
REMARK  165  A    between atoms: _394  and  _395
REMARK  166  A    between atoms: _394  and  _397
REMARK  167  A    between atoms: _397  and  _398
REMARK  168  A    between atoms: _403  and  _404
REMARK  169  A    between atoms: _406  and  _408
REMARK  170  A    between atoms: _408  and  _409
REMARK  171  A    between atoms: _408  and  _411
REMARK  172  A    between atoms: _411  and  _412
REMARK  173  A    between atoms: _412  and  _413
REMARK  174  A    between atoms: _418  and  _420
REMARK  175  A    between atoms: _420  and  _421
REMARK  176  A    between atoms: _420  and  _423
REMARK  177  A    between atoms: _423  and  _424
REMARK  178  A    between atoms: _427  and  _429
REMARK  179  A    between atoms: _429  and  _430
REMARK  180  A    between atoms: _429  and  _432
REMARK  181  A    between atoms: _432  and  _433
REMARK  182  A    between atoms: _438  and  _439
REMARK  183  A    between atoms: _441  and  _443
REMARK  184  A    between atoms: _443  and  _444
REMARK  185  A    between atoms: _443  and  _446
REMARK  186  A    between atoms: _446  and  _447
REMARK  187  A    between atoms: _447  and  _448
REMARK  188  A    between atoms: _453  and  _455
REMARK  189  A    between atoms: _455  and  _456
REMARK  190  A    between atoms: _455  and  _458
REMARK  191  A    between atoms: _458  and  _459
REMARK  192  A    between atoms: _464  and  _466
REMARK  193  A    between atoms: _466  and  _467
REMARK  194  A    between atoms: _466  and  _469
REMARK  195  A    between atoms: _469  and  _470
REMARK  196  A    between atoms: _473  and  _475
REMARK  197  A    between atoms: _475  and  _476
REMARK  198  A    between atoms: _475  and  _478
REMARK  199  A    between atoms: _478  and  _479
REMARK  200  A    between atoms: _489  and  _491
REMARK  201  A    between atoms: _491  and  _492
REMARK  202  A    between atoms: _491  and  _494
REMARK  203  A    between atoms: _494  and  _495
REMARK  204  A    between atoms: _495  and  _496
REMARK  205  A    between atoms: _501  and  _503
REMARK  206  A    between atoms: _503  and  _504
REMARK  207  A    between atoms: _503  and  _506
REMARK  208  A    between atoms: _506  and  _507
REMARK  209  A    between atoms: _509  and  _511
REMARK  210  A    between atoms: _511  and  _512
REMARK  211  A    between atoms: _511  and  _514
REMARK  212  A    between atoms: _514  and  _515
REMARK  213  A    between atoms: _518  and  _520
REMARK  214  A    between atoms: _520  and  _521
REMARK  215  A    between atoms: _520  and  _523
REMARK  216  A    between atoms: _523  and  _524
REMARK  217  A    between atoms: _527  and  _529
REMARK  218  A    between atoms: _529  and  _530
REMARK  219  A    between atoms: _529  and  _532
REMARK  220  A    between atoms: _532  and  _533
REMARK  221  A    between atoms: _536  and  _538
REMARK  222  A    between atoms: _538  and  _539
REMARK  223  A    between atoms: _538  and  _541
REMARK  224  A    between atoms: _541  and  _542
REMARK  225  A    between atoms: _545  and  _547
REMARK  226  A    between atoms: _547  and  _548
REMARK  227  A    between atoms: _550  and  _552
REMARK  228  A    between atoms: _552  and  _553
REMARK  229  A    between atoms: _552  and  _555
REMARK  230  A    between atoms: _555  and  _556
REMARK                            x       y       z     vdW  Elec       q    Type
REMARK                         _______ _______ _______ _____ _____    ______ ____
ROOT
ATOM      1  O   HOH     1      23.902  25.170  46.145  0.00  0.00    +0.000 OA
ENDROOT
TORSDOF 0
REMARK  Name = ../refined-set-2016/3fv3/3fv3_pocket.pdb
REMARK  230 active torsions:
REMARK  status: ('A' for Active; 'I' for Inactive)
REMARK    1  A    between atoms: _1  and  _3
REMARK    2  A    between atoms: _3  and  _4
REMARK    3  A    between atoms: _7  and  _8
REMARK    4  A    between atoms: _13  and  _15
REMARK    5  A    between atoms: _15  and  _16
REMARK    6  A    between atoms: _15  and  _18
REMARK    7  A    between atoms: _18  and  _19
REMARK    8  A    between atoms: _21  and  _23
REMARK    9  A    between atoms: _23  and  _24
REMARK   10  A    between atoms: _23  and  _26
REMARK   11  A    between atoms: _26  and  _27
REMARK   12  A    between atoms: _32  and  _33
REMARK   13  A    between atoms: _35  and  _37
REMARK   14  A    between atoms: _37  and  _38
REMARK   15  A    between atoms: _37  and  _40
REMARK   16  A    between atoms: _40  and  _41
REMARK   17  A    between atoms: _44  and  _46
REMARK   18  A    between atoms: _46  and  _47
REMARK   19  A    between atoms: _46  and  _49
REMARK   20  A    between atoms: _49  and  _50
REMARK   21  A    between atoms: _53  and  _55
REMARK   22  A    between atoms: _55  and  _56
REMARK   23  A    between atoms: _55  and  _58
REMARK   24  A    between atoms: _58  and  _59
REMARK   25  A    between atoms: _62  and  _64
REMARK   26  A    between atoms: _64  and  _65
REMARK   27  A    between atoms: _64  and  _67
REMARK   28  A    between atoms: _67  and  _68
REMARK   29  A    between atoms: _71  and  _73
REMARK   30  A    between atoms: _73  and  _74
REMARK   31  A    between atoms: _76  and  _78
REMARK   32  A    between atoms: _78  and  _79
REMARK   33  A    between atoms: _78  and  _81
REMARK   34  A    between atoms: _81  and  _82
REMARK   35  A    between atoms: _84  and  _86
REMARK   36  A    between atoms: _86  and  _87
REMARK   37  A    between atoms: _86  and  _89
REMARK   38  A    between atoms: _89  and  _90
REMARK   39  A    between atoms: _92  and  _94
REMARK   40  A    between atoms: _94  and  _95
REMARK   41  A    between atoms: _94  and  _97
REMARK   42  A    between atoms: _97  and  _98
REMARK   43  A    between atoms: _101  and  _103
REMARK   44  A    between atoms: _103  and  _104
REMARK   45  A    between atoms: _103  and  _106
REMARK   46  A    between atoms: _106  and  _107
REMARK   47  A    between atoms: _117  and  _119
REMARK   48  A    between atoms: _119  and  _120
REMARK   49  A    between atoms: _119  and  _122
REMARK   50  A    between atoms: _122  and  _123
REMARK   51  A    between atoms: _126  and  _128
REMARK   52  A    between atoms: _128  and  _129
REMARK   53  A    between atoms: _128  and  _131
REMARK   54  A    between atoms: _131  and  _132
REMARK   55  A    between atoms: _132  and  _133
REMARK   56  A    between atoms: _133  and  _134
REMARK   57  A    between atoms: _143  and  _145
REMARK   58  A    between atoms: _145  and  _146
REMARK   59  A    between atoms: _145  and  _148
REMARK   60  A    between atoms: _148  and  _149
REMARK   61  A    between atoms: _154  and  _155
REMARK   62  A    between atoms: _157  and  _159
REMARK   63  A    between atoms: _159  and  _160
REMARK   64  A    between atoms: _162  and  _164
REMARK   65  A    between atoms: _164  and  _165
REMARK   66  A    between atoms: _164  and  _167
REMARK   67  A    between atoms: _167  and  _168
REMARK   68  A    between atoms: _171  and  _173
REMARK   69  A    between atoms: _173  and  _174
REMARK   70  A    between atoms: _176  and  _178
REMARK   71  A    between atoms: _178  and  _179
REMARK   72  A    between atoms: _178  and  _181
REMARK   73  A    between atoms: _181  and  _182
REMARK   74  A    between atoms: _184  and  _186
REMARK   75  A    between atoms: _186  and  _187
REMARK   76  A    between atoms: _186  and  _189
REMARK   77  A    between atoms: _189  and  _190
REMARK   78  A    between atoms: _193  and  _195
REMARK   79  A    between atoms: _195  and  _196
REMARK   80  A    between atoms: _195  and  _198
REMARK   81  A    between atoms: _198  and  _199
REMARK   82  A    between atoms: _201  and  _203
REMARK   83  A    between atoms: _203  and  _204
REMARK   84  A    between atoms: _203  and  _206
REMARK   85  A    between atoms: _209  and  _211
REMARK   86  A    between atoms: _211  and  _212
REMARK   87  A    between atoms: _211  and  _214
REMARK   88  A    between atoms: _214  and  _215
REMARK   89  A    between atoms: _218  and  _220
REMARK   90  A    between atoms: _220  and  _221
REMARK   91  A    between atoms: _220  and  _223
REMARK   92  A    between atoms: _223  and  _224
REMARK   93  A    between atoms: _224  and  _225
REMARK   94  A    between atoms: _230  and  _232
REMARK   95  A    between atoms: _232  and  _233
REMARK   96  A    between atoms: _235  and  _237
REMARK   97  A    between atoms: _237  and  _238
REMARK   98  A    between atoms: _237  and  _240
REMARK   99  A    between atoms: _240  and  _241
REMARK  100  A    between atoms: _244  and  _246
REMARK  101  A    between atoms: _246  and  _247
REMARK  102  A    between atoms: _246  and  _249
REMARK  103  A    between atoms: _249  and  _250
REMARK  104  A    between atoms: _253  and  _255
REMARK  105  A    between atoms: _255  and  _256
REMARK  106  A    between atoms: _255  and  _258
REMARK  107  A    between atoms: _258  and  _259
REMARK  108  A    between atoms: _262  and  _264
REMARK  109  A    between atoms: _264  and  _265
REMARK  110  A    between atoms: _264  and  _267
REMARK  111  A    between atoms: _267  and  _268
REMARK  112  A    between atoms: _273  and  _275
REMARK  113  A    between atoms: _275  and  _276
REMARK  114  A    between atoms: _275  and  _278
REMARK  115  A    between atoms: _278  and  _279
REMARK  116  A    between atoms: _279  and  _280
REMARK  117  A    between atoms: _283  and  _285
REMARK  118  A    between atoms: _285  and  _286
REMARK  119  A    between atoms: _289  and  _291
REMARK  120  A    between atoms: _291  and  _292
REMARK  121  A    between atoms: _291  and  _294
REMARK  122  A    between atoms: _294  and  _295
REMARK  123  A    between atoms: _295  and  _296
REMARK  124  A    between atoms: _301  and  _303
REMARK  125  A    between atoms: _303  and  _304
REMARK  126  A    between atoms: _307  and  _309
REMARK  127  A    between atoms: _309  and  _310
REMARK  128  A    between atoms: _309  and  _312
REMARK  129  A    between atoms: _312  and  _313
REMARK  130  A    between atoms: _316  and  _318
REMARK  131  A    between atoms: _318  and  _319
REMARK  132  A    between atoms: _318  and  _321
REMARK  133  A    between atoms: _321  and  _322
REMARK  134  A    between atoms: _325  and  _327
REMARK  135  A    between atoms: _327  and  _328
REMARK  136  A    between atoms: _327  and  _330
REMARK  137  A    between atoms: _330  and  _331
REMARK  138  A    between atoms: _334  and  _336
REMARK  139  A    between atoms: _336  and  _337
REMARK  140  A    between atoms: _336  and  _339
REMARK  141  A    between atoms: _339  and  _340
REMARK  142  A    between atoms: _343  and  _345
REMARK  143  A    between atoms: _345  and  _346
REMARK  144  A    between atoms: _345  and  _348
REMARK  145  A    between atoms: _348  and  _349
REMARK  146  A    between atoms: _351  and  _353
REMARK  147  A    between atoms: _353  and  _354
REMARK  148  A    between atoms: _356  and  _358
REMARK  149  A    between atoms: _358  and  _359
REMARK  150  A    between atoms: _358  and  _361
REMARK  151  A    between atoms: _361  and  _362
REMARK  152  A    between atoms: _365  and  _367
REMARK  153  A    between atoms: _367  and  _368
REMARK  154  A    between atoms: _367  and  _370
REMARK  155  A    between atoms: _370  and  _371
REMARK  156  A    between atoms: _374  and  _376
REMARK  157  A    between atoms: _376  and  _377
REMARK  158  A    between atoms: _376  and  _379
REMARK  159  A    between atoms: _379  and  _380
REMARK  160  A    between atoms: _383  and  _385
REMARK  161  A    between atoms: _385  and  _386
REMARK  162  A    between atoms: _385  and  _388
REMARK  163  A    between atoms: _388  and  _389
REMARK  164  A    between atoms: _392  and  _394
REMARK  165  A    between atoms: _394  and  _395
REMARK  166  A    between atoms: _394  and  _397
REMARK  167  A    between atoms: _397  and  _398
REMARK  168  A    between atoms: _403  and  _404
REMARK  169  A    between atoms: _406  and  _408
REMARK  170  A    between atoms: _408  and  _409
REMARK  171  A    between atoms: _408  and  _411
REMARK  172  A    between atoms: _411  and  _412
REMARK  173  A    between atoms: _412  and  _413
REMARK  174  A    between atoms: _418  and  _420
REMARK  175  A    between atoms: _420  and  _421
REMARK  176  A    between atoms: _420  and  _423
REMARK  177  A    between atoms: _423  and  _424
REMARK  178  A    between atoms: _427  and  _429
REMARK  179  A    between atoms: _429  and  _430
REMARK  180  A    between atoms: _429  and  _432
REMARK  181  A    between atoms: _432  and  _433
REMARK  182  A    between atoms: _438  and  _439
REMARK  183  A    between atoms: _441  and  _443
REMARK  184  A    between atoms: _443  and  _444
REMARK  185  A    between atoms: _443  and  _446
REMARK  186  A    between atoms: _446  and  _447
REMARK  187  A    between atoms: _447  and  _448
REMARK  188  A    between atoms: _453  and  _455
REMARK  189  A    between atoms: _455  and  _456
REMARK  190  A    between atoms: _455  and  _458
REMARK  191  A    between atoms: _458  and  _459
REMARK  192  A    between atoms: _464  and  _466
REMARK  193  A    between atoms: _466  and  _467
REMARK  194  A    between atoms: _466  and  _469
REMARK  195  A    between atoms: _469  and  _470
REMARK  196  A    between atoms: _473  and  _475
REMARK  197  A    between atoms: _475  and  _476
REMARK  198  A    between atoms: _475  and  _478
REMARK  199  A    between atoms: _478  and  _479
REMARK  200  A    between atoms: _489  and  _491
REMARK  201  A    between atoms: _491  and  _492
REMARK  202  A    between atoms: _491  and  _494
REMARK  203  A    between atoms: _494  and  _495
REMARK  204  A    between atoms: _495  and  _496
REMARK  205  A    between atoms: _501  and  _503
REMARK  206  A    between atoms: _503  and  _504
REMARK  207  A    between atoms: _503  and  _506
REMARK  208  A    between atoms: _506  and  _507
REMARK  209  A    between atoms: _509  and  _511
REMARK  210  A    between atoms: _511  and  _512
REMARK  211  A    between atoms: _511  and  _514
REMARK  212  A    between atoms: _514  and  _515
REMARK  213  A    between atoms: _518  and  _520
REMARK  214  A    between atoms: _520  and  _521
REMARK  215  A    between atoms: _520  and  _523
REMARK  216  A    between atoms: _523  and  _524
REMARK  217  A    between atoms: _527  and  _529
REMARK  218  A    between atoms: _529  and  _530
REMARK  219  A    between atoms: _529  and  _532
REMARK  220  A    between atoms: _532  and  _533
REMARK  221  A    between atoms: _536  and  _538
REMARK  222  A    between atoms: _538  and  _539
REMARK  223  A    between atoms: _538  and  _541
REMARK  224  A    between atoms: _541  and  _542
REMARK  225  A    between atoms: _545  and  _547
REMARK  226  A    between atoms: _547  and  _548
REMARK  227  A    between atoms: _550  and  _552
REMARK  228  A    between atoms: _552  and  _553
REMARK  229  A    between atoms: _552  and  _555
REMARK  230  A    between atoms: _555  and  _556
REMARK                            x       y       z     vdW  Elec       q    Type
REMARK                         _______ _______ _______ _____ _____    ______ ____
ROOT
ATOM      1  O   HOH     1      21.760  17.602  50.719  0.00  0.00    +0.000 OA
ENDROOT
TORSDOF 0
REMARK  Name = ../refined-set-2016/3fv3/3fv3_pocket.pdb
REMARK  230 active torsions:
REMARK  status: ('A' for Active; 'I' for Inactive)
REMARK    1  A    between atoms: _1  and  _3
REMARK    2  A    between atoms: _3  and  _4
REMARK    3  A    between atoms: _7  and  _8
REMARK    4  A    between atoms: _13  and  _15
REMARK    5  A    between atoms: _15  and  _16
REMARK    6  A    between atoms: _15  and  _18
REMARK    7  A    between atoms: _18  and  _19
REMARK    8  A    between atoms: _21  and  _23
REMARK    9  A    between atoms: _23  and  _24
REMARK   10  A    between atoms: _23  and  _26
REMARK   11  A    between atoms: _26  and  _27
REMARK   12  A    between atoms: _32  and  _33
REMARK   13  A    between atoms: _35  and  _37
REMARK   14  A    between atoms: _37  and  _38
REMARK   15  A    between atoms: _37  and  _40
REMARK   16  A    between atoms: _40  and  _41
REMARK   17  A    between atoms: _44  and  _46
REMARK   18  A    between atoms: _46  and  _47
REMARK   19  A    between atoms: _46  and  _49
REMARK   20  A    between atoms: _49  and  _50
REMARK   21  A    between atoms: _53  and  _55
REMARK   22  A    between atoms: _55  and  _56
REMARK   23  A    between atoms: _55  and  _58
REMARK   24  A    between atoms: _58  and  _59
REMARK   25  A    between atoms: _62  and  _64
REMARK   26  A    between atoms: _64  and  _65
REMARK   27  A    between atoms: _64  and  _67
REMARK   28  A    between atoms: _67  and  _68
REMARK   29  A    between atoms: _71  and  _73
REMARK   30  A    between atoms: _73  and  _74
REMARK   31  A    between atoms: _76  and  _78
REMARK   32  A    between atoms: _78  and  _79
REMARK   33  A    between atoms: _78  and  _81
REMARK   34  A    between atoms: _81  and  _82
REMARK   35  A    between atoms: _84  and  _86
REMARK   36  A    between atoms: _86  and  _87
REMARK   37  A    between atoms: _86  and  _89
REMARK   38  A    between atoms: _89  and  _90
REMARK   39  A    between atoms: _92  and  _94
REMARK   40  A    between atoms: _94  and  _95
REMARK   41  A    between atoms: _94  and  _97
REMARK   42  A    between atoms: _97  and  _98
REMARK   43  A    between atoms: _101  and  _103
REMARK   44  A    between atoms: _103  and  _104
REMARK   45  A    between atoms: _103  and  _106
REMARK   46  A    between atoms: _106  and  _107
REMARK   47  A    between atoms: _117  and  _119
REMARK   48  A    between atoms: _119  and  _120
REMARK   49  A    between atoms: _119  and  _122
REMARK   50  A    between atoms: _122  and  _123
REMARK   51  A    between atoms: _126  and  _128
REMARK   52  A    between atoms: _128  and  _129
REMARK   53  A    between atoms: _128  and  _131
REMARK   54  A    between atoms: _131  and  _132
REMARK   55  A    between atoms: _132  and  _133
REMARK   56  A    between atoms: _133  and  _134
REMARK   57  A    between atoms: _143  and  _145
REMARK   58  A    between atoms: _145  and  _146
REMARK   59  A    between atoms: _145  and  _148
REMARK   60  A    between atoms: _148  and  _149
REMARK   61  A    between atoms: _154  and  _155
REMARK   62  A    between atoms: _157  and  _159
REMARK   63  A    between atoms: _159  and  _160
REMARK   64  A    between atoms: _162  and  _164
REMARK   65  A    between atoms: _164  and  _165
REMARK   66  A    between atoms: _164  and  _167
REMARK   67  A    between atoms: _167  and  _168
REMARK   68  A    between atoms: _171  and  _173
REMARK   69  A    between atoms: _173  and  _174
REMARK   70  A    between atoms: _176  and  _178
REMARK   71  A    between atoms: _178  and  _179
REMARK   72  A    between atoms: _178  and  _181
REMARK   73  A    between atoms: _181  and  _182
REMARK   74  A    between atoms: _184  and  _186
REMARK   75  A    between atoms: _186  and  _187
REMARK   76  A    between atoms: _186  and  _189
REMARK   77  A    between atoms: _189  and  _190
REMARK   78  A    between atoms: _193  and  _195
REMARK   79  A    between atoms: _195  and  _196
REMARK   80  A    between atoms: _195  and  _198
REMARK   81  A    between atoms: _198  and  _199
REMARK   82  A    between atoms: _201  and  _203
REMARK   83  A    between atoms: _203  and  _204
REMARK   84  A    between atoms: _203  and  _206
REMARK   85  A    between atoms: _209  and  _211
REMARK   86  A    between atoms: _211  and  _212
REMARK   87  A    between atoms: _211  and  _214
REMARK   88  A    between atoms: _214  and  _215
REMARK   89  A    between atoms: _218  and  _220
REMARK   90  A    between atoms: _220  and  _221
REMARK   91  A    between atoms: _220  and  _223
REMARK   92  A    between atoms: _223  and  _224
REMARK   93  A    between atoms: _224  and  _225
REMARK   94  A    between atoms: _230  and  _232
REMARK   95  A    between atoms: _232  and  _233
REMARK   96  A    between atoms: _235  and  _237
REMARK   97  A    between atoms: _237  and  _238
REMARK   98  A    between atoms: _237  and  _240
REMARK   99  A    between atoms: _240  and  _241
REMARK  100  A    between atoms: _244  and  _246
REMARK  101  A    between atoms: _246  and  _247
REMARK  102  A    between atoms: _246  and  _249
REMARK  103  A    between atoms: _249  and  _250
REMARK  104  A    between atoms: _253  and  _255
REMARK  105  A    between atoms: _255  and  _256
REMARK  106  A    between atoms: _255  and  _258
REMARK  107  A    between atoms: _258  and  _259
REMARK  108  A    between atoms: _262  and  _264
REMARK  109  A    between atoms: _264  and  _265
REMARK  110  A    between atoms: _264  and  _267
REMARK  111  A    between atoms: _267  and  _268
REMARK  112  A    between atoms: _273  and  _275
REMARK  113  A    between atoms: _275  and  _276
REMARK  114  A    between atoms: _275  and  _278
REMARK  115  A    between atoms: _278  and  _279
REMARK  116  A    between atoms: _279  and  _280
REMARK  117  A    between atoms: _283  and  _285
REMARK  118  A    between atoms: _285  and  _286
REMARK  119  A    between atoms: _289  and  _291
REMARK  120  A    between atoms: _291  and  _292
REMARK  121  A    between atoms: _291  and  _294
REMARK  122  A    between atoms: _294  and  _295
REMARK  123  A    between atoms: _295  and  _296
REMARK  124  A    between atoms: _301  and  _303
REMARK  125  A    between atoms: _303  and  _304
REMARK  126  A    between atoms: _307  and  _309
REMARK  127  A    between atoms: _309  and  _310
REMARK  128  A    between atoms: _309  and  _312
REMARK  129  A    between atoms: _312  and  _313
REMARK  130  A    between atoms: _316  and  _318
REMARK  131  A    between atoms: _318  and  _319
REMARK  132  A    between atoms: _318  and  _321
REMARK  133  A    between atoms: _321  and  _322
REMARK  134  A    between atoms: _325  and  _327
REMARK  135  A    between atoms: _327  and  _328
REMARK  136  A    between atoms: _327  and  _330
REMARK  137  A    between atoms: _330  and  _331
REMARK  138  A    between atoms: _334  and  _336
REMARK  139  A    between atoms: _336  and  _337
REMARK  140  A    between atoms: _336  and  _339
REMARK  141  A    between atoms: _339  and  _340
REMARK  142  A    between atoms: _343  and  _345
REMARK  143  A    between atoms: _345  and  _346
REMARK  144  A    between atoms: _345  and  _348
REMARK  145  A    between atoms: _348  and  _349
REMARK  146  A    between atoms: _351  and  _353
REMARK  147  A    between atoms: _353  and  _354
REMARK  148  A    between atoms: _356  and  _358
REMARK  149  A    between atoms: _358  and  _359
REMARK  150  A    between atoms: _358  and  _361
REMARK  151  A    between atoms: _361  and  _362
REMARK  152  A    between atoms: _365  and  _367
REMARK  153  A    between atoms: _367  and  _368
REMARK  154  A    between atoms: _367  and  _370
REMARK  155  A    between atoms: _370  and  _371
REMARK  156  A    between atoms: _374  and  _376
REMARK  157  A    between atoms: _376  and  _377
REMARK  158  A    between atoms: _376  and  _379
REMARK  159  A    between atoms: _379  and  _380
REMARK  160  A    between atoms: _383  and  _385
REMARK  161  A    between atoms: _385  and  _386
REMARK  162  A    between atoms: _385  and  _388
REMARK  163  A    between atoms: _388  and  _389
REMARK  164  A    between atoms: _392  and  _394
REMARK  165  A    between atoms: _394  and  _395
REMARK  166  A    between atoms: _394  and  _397
REMARK  167  A    between atoms: _397  and  _398
REMARK  168  A    between atoms: _403  and  _404
REMARK  169  A    between atoms: _406  and  _408
REMARK  170  A    between atoms: _408  and  _409
REMARK  171  A    between atoms: _408  and  _411
REMARK  172  A    between atoms: _411  and  _412
REMARK  173  A    between atoms: _412  and  _413
REMARK  174  A    between atoms: _418  and  _420
REMARK  175  A    between atoms: _420  and  _421
REMARK  176  A    between atoms: _420  and  _423
REMARK  177  A    between atoms: _423  and  _424
REMARK  178  A    between atoms: _427  and  _429
REMARK  179  A    between atoms: _429  and  _430
REMARK  180  A    between atoms: _429  and  _432
REMARK  181  A    between atoms: _432  and  _433
REMARK  182  A    between atoms: _438  and  _439
REMARK  183  A    between atoms: _441  and  _443
REMARK  184  A    between atoms: _443  and  _444
REMARK  185  A    between atoms: _443  and  _446
REMARK  186  A    between atoms: _446  and  _447
REMARK  187  A    between atoms: _447  and  _448
REMARK  188  A    between atoms: _453  and  _455
REMARK  189  A    between atoms: _455  and  _456
REMARK  190  A    between atoms: _455  and  _458
REMARK  191  A    between atoms: _458  and  _459
REMARK  192  A    between atoms: _464  and  _466
REMARK  193  A    between atoms: _466  and  _467
REMARK  194  A    between atoms: _466  and  _469
REMARK  195  A    between atoms: _469  and  _470
REMARK  196  A    between atoms: _473  and  _475
REMARK  197  A    between atoms: _475  and  _476
REMARK  198  A    between atoms: _475  and  _478
REMARK  199  A    between atoms: _478  and  _479
REMARK  200  A    between atoms: _489  and  _491
REMARK  201  A    between atoms: _491  and  _492
REMARK  202  A    between atoms: _491  and  _494
REMARK  203  A    between atoms: _494  and  _495
REMARK  204  A    between atoms: _495  and  _496
REMARK  205  A    between atoms: _501  and  _503
REMARK  206  A    between atoms: _503  and  _504
REMARK  207  A    between atoms: _503  and  _506
REMARK  208  A    between atoms: _506  and  _507
REMARK  209  A    between atoms: _509  and  _511
REMARK  210  A    between atoms: _511  and  _512
REMARK  211  A    between atoms: _511  and  _514
REMARK  212  A    between atoms: _514  and  _515
REMARK  213  A    between atoms: _518  and  _520
REMARK  214  A    between atoms: _520  and  _521
REMARK  215  A    between atoms: _520  and  _523
REMARK  216  A    between atoms: _523  and  _524
REMARK  217  A    between atoms: _527  and  _529
REMARK  218  A    between atoms: _529  and  _530
REMARK  219  A    between atoms: _529  and  _532
REMARK  220  A    between atoms: _532  and  _533
REMARK  221  A    between atoms: _536  and  _538
REMARK  222  A    between atoms: _538  and  _539
REMARK  223  A    between atoms: _538  and  _541
REMARK  224  A    between atoms: _541  and  _542
REMARK  225  A    between atoms: _545  and  _547
REMARK  226  A    between atoms: _547  and  _548
REMARK  227  A    between atoms: _550  and  _552
REMARK  228  A    between atoms: _552  and  _553
REMARK  229  A    between atoms: _552  and  _555
REMARK  230  A    between atoms: _555  and  _556
REMARK                            x       y       z     vdW  Elec       q    Type
REMARK                         _______ _______ _______ _____ _____    ______ ____
ROOT
ATOM      1  O   HOH     1      15.846  28.119  55.693  0.00  0.00    +0.000 OA
ENDROOT
TORSDOF 0
REMARK  Name = ../refined-set-2016/3fv3/3fv3_pocket.pdb
REMARK  230 active torsions:
REMARK  status: ('A' for Active; 'I' for Inactive)
REMARK    1  A    between atoms: _1  and  _3
REMARK    2  A    between atoms: _3  and  _4
REMARK    3  A    between atoms: _7  and  _8
REMARK    4  A    between atoms: _13  and  _15
REMARK    5  A    between atoms: _15  and  _16
REMARK    6  A    between atoms: _15  and  _18
REMARK    7  A    between atoms: _18  and  _19
REMARK    8  A    between atoms: _21  and  _23
REMARK    9  A    between atoms: _23  and  _24
REMARK   10  A    between atoms: _23  and  _26
REMARK   11  A    between atoms: _26  and  _27
REMARK   12  A    between atoms: _32  and  _33
REMARK   13  A    between atoms: _35  and  _37
REMARK   14  A    between atoms: _37  and  _38
REMARK   15  A    between atoms: _37  and  _40
REMARK   16  A    between atoms: _40  and  _41
REMARK   17  A    between atoms: _44  and  _46
REMARK   18  A    between atoms: _46  and  _47
REMARK   19  A    between atoms: _46  and  _49
REMARK   20  A    between atoms: _49  and  _50
REMARK   21  A    between atoms: _53  and  _55
REMARK   22  A    between atoms: _55  and  _56
REMARK   23  A    between atoms: _55  and  _58
REMARK   24  A    between atoms: _58  and  _59
REMARK   25  A    between atoms: _62  and  _64
REMARK   26  A    between atoms: _64  and  _65
REMARK   27  A    between atoms: _64  and  _67
REMARK   28  A    between atoms: _67  and  _68
REMARK   29  A    between atoms: _71  and  _73
REMARK   30  A    between atoms: _73  and  _74
REMARK   31  A    between atoms: _76  and  _78
REMARK   32  A    between atoms: _78  and  _79
REMARK   33  A    between atoms: _78  and  _81
REMARK   34  A    between atoms: _81  and  _82
REMARK   35  A    between atoms: _84  and  _86
REMARK   36  A    between atoms: _86  and  _87
REMARK   37  A    between atoms: _86  and  _89
REMARK   38  A    between atoms: _89  and  _90
REMARK   39  A    between atoms: _92  and  _94
REMARK   40  A    between atoms: _94  and  _95
REMARK   41  A    between atoms: _94  and  _97
REMARK   42  A    between atoms: _97  and  _98
REMARK   43  A    between atoms: _101  and  _103
REMARK   44  A    between atoms: _103  and  _104
REMARK   45  A    between atoms: _103  and  _106
REMARK   46  A    between atoms: _106  and  _107
REMARK   47  A    between atoms: _117  and  _119
REMARK   48  A    between atoms: _119  and  _120
REMARK   49  A    between atoms: _119  and  _122
REMARK   50  A    between atoms: _122  and  _123
REMARK   51  A    between atoms: _126  and  _128
REMARK   52  A    between atoms: _128  and  _129
REMARK   53  A    between atoms: _128  and  _131
REMARK   54  A    between atoms: _131  and  _132
REMARK   55  A    between atoms: _132  and  _133
REMARK   56  A    between atoms: _133  and  _134
REMARK   57  A    between atoms: _143  and  _145
REMARK   58  A    between atoms: _145  and  _146
REMARK   59  A    between atoms: _145  and  _148
REMARK   60  A    between atoms: _148  and  _149
REMARK   61  A    between atoms: _154  and  _155
REMARK   62  A    between atoms: _157  and  _159
REMARK   63  A    between atoms: _159  and  _160
REMARK   64  A    between atoms: _162  and  _164
REMARK   65  A    between atoms: _164  and  _165
REMARK   66  A    between atoms: _164  and  _167
REMARK   67  A    between atoms: _167  and  _168
REMARK   68  A    between atoms: _171  and  _173
REMARK   69  A    between atoms: _173  and  _174
REMARK   70  A    between atoms: _176  and  _178
REMARK   71  A    between atoms: _178  and  _179
REMARK   72  A    between atoms: _178  and  _181
REMARK   73  A    between atoms: _181  and  _182
REMARK   74  A    between atoms: _184  and  _186
REMARK   75  A    between atoms: _186  and  _187
REMARK   76  A    between atoms: _186  and  _189
REMARK   77  A    between atoms: _189  and  _190
REMARK   78  A    between atoms: _193  and  _195
REMARK   79  A    between atoms: _195  and  _196
REMARK   80  A    between atoms: _195  and  _198
REMARK   81  A    between atoms: _198  and  _199
REMARK   82  A    between atoms: _201  and  _203
REMARK   83  A    between atoms: _203  and  _204
REMARK   84  A    between atoms: _203  and  _206
REMARK   85  A    between atoms: _209  and  _211
REMARK   86  A    between atoms: _211  and  _212
REMARK   87  A    between atoms: _211  and  _214
REMARK   88  A    between atoms: _214  and  _215
REMARK   89  A    between atoms: _218  and  _220
REMARK   90  A    between atoms: _220  and  _221
REMARK   91  A    between atoms: _220  and  _223
REMARK   92  A    between atoms: _223  and  _224
REMARK   93  A    between atoms: _224  and  _225
REMARK   94  A    between atoms: _230  and  _232
REMARK   95  A    between atoms: _232  and  _233
REMARK   96  A    between atoms: _235  and  _237
REMARK   97  A    between atoms: _237  and  _238
REMARK   98  A    between atoms: _237  and  _240
REMARK   99  A    between atoms: _240  and  _241
REMARK  100  A    between atoms: _244  and  _246
REMARK  101  A    between atoms: _246  and  _247
REMARK  102  A    between atoms: _246  and  _249
REMARK  103  A    between atoms: _249  and  _250
REMARK  104  A    between atoms: _253  and  _255
REMARK  105  A    between atoms: _255  and  _256
REMARK  106  A    between atoms: _255  and  _258
REMARK  107  A    between atoms: _258  and  _259
REMARK  108  A    between atoms: _262  and  _264
REMARK  109  A    between atoms: _264  and  _265
REMARK  110  A    between atoms: _264  and  _267
REMARK  111  A    between atoms: _267  and  _268
REMARK  112  A    between atoms: _273  and  _275
REMARK  113  A    between atoms: _275  and  _276
REMARK  114  A    between atoms: _275  and  _278
REMARK  115  A    between atoms: _278  and  _279
REMARK  116  A    between atoms: _279  and  _280
REMARK  117  A    between atoms: _283  and  _285
REMARK  118  A    between atoms: _285  and  _286
REMARK  119  A    between atoms: _289  and  _291
REMARK  120  A    between atoms: _291  and  _292
REMARK  121  A    between atoms: _291  and  _294
REMARK  122  A    between atoms: _294  and  _295
REMARK  123  A    between atoms: _295  and  _296
REMARK  124  A    between atoms: _301  and  _303
REMARK  125  A    between atoms: _303  and  _304
REMARK  126  A    between atoms: _307  and  _309
REMARK  127  A    between atoms: _309  and  _310
REMARK  128  A    between atoms: _309  and  _312
REMARK  129  A    between atoms: _312  and  _313
REMARK  130  A    between atoms: _316  and  _318
REMARK  131  A    between atoms: _318  and  _319
REMARK  132  A    between atoms: _318  and  _321
REMARK  133  A    between atoms: _321  and  _322
REMARK  134  A    between atoms: _325  and  _327
REMARK  135  A    between atoms: _327  and  _328
REMARK  136  A    between atoms: _327  and  _330
REMARK  137  A    between atoms: _330  and  _331
REMARK  138  A    between atoms: _334  and  _336
REMARK  139  A    between atoms: _336  and  _337
REMARK  140  A    between atoms: _336  and  _339
REMARK  141  A    between atoms: _339  and  _340
REMARK  142  A    between atoms: _343  and  _345
REMARK  143  A    between atoms: _345  and  _346
REMARK  144  A    between atoms: _345  and  _348
REMARK  145  A    between atoms: _348  and  _349
REMARK  146  A    between atoms: _351  and  _353
REMARK  147  A    between atoms: _353  and  _354
REMARK  148  A    between atoms: _356  and  _358
REMARK  149  A    between atoms: _358  and  _359
REMARK  150  A    between atoms: _358  and  _361
REMARK  151  A    between atoms: _361  and  _362
REMARK  152  A    between atoms: _365  and  _367
REMARK  153  A    between atoms: _367  and  _368
REMARK  154  A    between atoms: _367  and  _370
REMARK  155  A    between atoms: _370  and  _371
REMARK  156  A    between atoms: _374  and  _376
REMARK  157  A    between atoms: _376  and  _377
REMARK  158  A    between atoms: _376  and  _379
REMARK  159  A    between atoms: _379  and  _380
REMARK  160  A    between atoms: _383  and  _385
REMARK  161  A    between atoms: _385  and  _386
REMARK  162  A    between atoms: _385  and  _388
REMARK  163  A    between atoms: _388  and  _389
REMARK  164  A    between atoms: _392  and  _394
REMARK  165  A    between atoms: _394  and  _395
REMARK  166  A    between atoms: _394  and  _397
REMARK  167  A    between atoms: _397  and  _398
REMARK  168  A    between atoms: _403  and  _404
REMARK  169  A    between atoms: _406  and  _408
REMARK  170  A    between atoms: _408  and  _409
REMARK  171  A    between atoms: _408  and  _411
REMARK  172  A    between atoms: _411  and  _412
REMARK  173  A    between atoms: _412  and  _413
REMARK  174  A    between atoms: _418  and  _420
REMARK  175  A    between atoms: _420  and  _421
REMARK  176  A    between atoms: _420  and  _423
REMARK  177  A    between atoms: _423  and  _424
REMARK  178  A    between atoms: _427  and  _429
REMARK  179  A    between atoms: _429  and  _430
REMARK  180  A    between atoms: _429  and  _432
REMARK  181  A    between atoms: _432  and  _433
REMARK  182  A    between atoms: _438  and  _439
REMARK  183  A    between atoms: _441  and  _443
REMARK  184  A    between atoms: _443  and  _444
REMARK  185  A    between atoms: _443  and  _446
REMARK  186  A    between atoms: _446  and  _447
REMARK  187  A    between atoms: _447  and  _448
REMARK  188  A    between atoms: _453  and  _455
REMARK  189  A    between atoms: _455  and  _456
REMARK  190  A    between atoms: _455  and  _458
REMARK  191  A    between atoms: _458  and  _459
REMARK  192  A    between atoms: _464  and  _466
REMARK  193  A    between atoms: _466  and  _467
REMARK  194  A    between atoms: _466  and  _469
REMARK  195  A    between atoms: _469  and  _470
REMARK  196  A    between atoms: _473  and  _475
REMARK  197  A    between atoms: _475  and  _476
REMARK  198  A    between atoms: _475  and  _478
REMARK  199  A    between atoms: _478  and  _479
REMARK  200  A    between atoms: _489  and  _491
REMARK  201  A    between atoms: _491  and  _492
REMARK  202  A    between atoms: _491  and  _494
REMARK  203  A    between atoms: _494  and  _495
REMARK  204  A    between atoms: _495  and  _496
REMARK  205  A    between atoms: _501  and  _503
REMARK  206  A    between atoms: _503  and  _504
REMARK  207  A    between atoms: _503  and  _506
REMARK  208  A    between atoms: _506  and  _507
REMARK  209  A    between atoms: _509  and  _511
REMARK  210  A    between atoms: _511  and  _512
REMARK  211  A    between atoms: _511  and  _514
REMARK  212  A    between atoms: _514  and  _515
REMARK  213  A    between atoms: _518  and  _520
REMARK  214  A    between atoms: _520  and  _521
REMARK  215  A    between atoms: _520  and  _523
REMARK  216  A    between atoms: _523  and  _524
REMARK  217  A    between atoms: _527  and  _529
REMARK  218  A    between atoms: _529  and  _530
REMARK  219  A    between atoms: _529  and  _532
REMARK  220  A    between atoms: _532  and  _533
REMARK  221  A    between atoms: _536  and  _538
REMARK  222  A    between atoms: _538  and  _539
REMARK  223  A    between atoms: _538  and  _541
REMARK  224  A    between atoms: _541  and  _542
REMARK  225  A    between atoms: _545  and  _547
REMARK  226  A    between atoms: _547  and  _548
REMARK  227  A    between atoms: _550  and  _552
REMARK  228  A    between atoms: _552  and  _553
REMARK  229  A    between atoms: _552  and  _555
REMARK  230  A    between atoms: _555  and  _556
REMARK                            x       y       z     vdW  Elec       q    Type
REMARK                         _______ _______ _______ _____ _____    ______ ____
ROOT
ATOM      1  O   HOH     1      23.368  28.394  73.043  0.00  0.00    +0.000 OA
ENDROOT
TORSDOF 0
REMARK  Name = ../refined-set-2016/3fv3/3fv3_pocket.pdb
REMARK  230 active torsions:
REMARK  status: ('A' for Active; 'I' for Inactive)
REMARK    1  A    between atoms: _1  and  _3
REMARK    2  A    between atoms: _3  and  _4
REMARK    3  A    between atoms: _7  and  _8
REMARK    4  A    between atoms: _13  and  _15
REMARK    5  A    between atoms: _15  and  _16
REMARK    6  A    between atoms: _15  and  _18
REMARK    7  A    between atoms: _18  and  _19
REMARK    8  A    between atoms: _21  and  _23
REMARK    9  A    between atoms: _23  and  _24
REMARK   10  A    between atoms: _23  and  _26
REMARK   11  A    between atoms: _26  and  _27
REMARK   12  A    between atoms: _32  and  _33
REMARK   13  A    between atoms: _35  and  _37
REMARK   14  A    between atoms: _37  and  _38
REMARK   15  A    between atoms: _37  and  _40
REMARK   16  A    between atoms: _40  and  _41
REMARK   17  A    between atoms: _44  and  _46
REMARK   18  A    between atoms: _46  and  _47
REMARK   19  A    between atoms: _46  and  _49
REMARK   20  A    between atoms: _49  and  _50
REMARK   21  A    between atoms: _53  and  _55
REMARK   22  A    between atoms: _55  and  _56
REMARK   23  A    between atoms: _55  and  _58
REMARK   24  A    between atoms: _58  and  _59
REMARK   25  A    between atoms: _62  and  _64
REMARK   26  A    between atoms: _64  and  _65
REMARK   27  A    between atoms: _64  and  _67
REMARK   28  A    between atoms: _67  and  _68
REMARK   29  A    between atoms: _71  and  _73
REMARK   30  A    between atoms: _73  and  _74
REMARK   31  A    between atoms: _76  and  _78
REMARK   32  A    between atoms: _78  and  _79
REMARK   33  A    between atoms: _78  and  _81
REMARK   34  A    between atoms: _81  and  _82
REMARK   35  A    between atoms: _84  and  _86
REMARK   36  A    between atoms: _86  and  _87
REMARK   37  A    between atoms: _86  and  _89
REMARK   38  A    between atoms: _89  and  _90
REMARK   39  A    between atoms: _92  and  _94
REMARK   40  A    between atoms: _94  and  _95
REMARK   41  A    between atoms: _94  and  _97
REMARK   42  A    between atoms: _97  and  _98
REMARK   43  A    between atoms: _101  and  _103
REMARK   44  A    between atoms: _103  and  _104
REMARK   45  A    between atoms: _103  and  _106
REMARK   46  A    between atoms: _106  and  _107
REMARK   47  A    between atoms: _117  and  _119
REMARK   48  A    between atoms: _119  and  _120
REMARK   49  A    between atoms: _119  and  _122
REMARK   50  A    between atoms: _122  and  _123
REMARK   51  A    between atoms: _126  and  _128
REMARK   52  A    between atoms: _128  and  _129
REMARK   53  A    between atoms: _128  and  _131
REMARK   54  A    between atoms: _131  and  _132
REMARK   55  A    between atoms: _132  and  _133
REMARK   56  A    between atoms: _133  and  _134
REMARK   57  A    between atoms: _143  and  _145
REMARK   58  A    between atoms: _145  and  _146
REMARK   59  A    between atoms: _145  and  _148
REMARK   60  A    between atoms: _148  and  _149
REMARK   61  A    between atoms: _154  and  _155
REMARK   62  A    between atoms: _157  and  _159
REMARK   63  A    between atoms: _159  and  _160
REMARK   64  A    between atoms: _162  and  _164
REMARK   65  A    between atoms: _164  and  _165
REMARK   66  A    between atoms: _164  and  _167
REMARK   67  A    between atoms: _167  and  _168
REMARK   68  A    between atoms: _171  and  _173
REMARK   69  A    between atoms: _173  and  _174
REMARK   70  A    between atoms: _176  and  _178
REMARK   71  A    between atoms: _178  and  _179
REMARK   72  A    between atoms: _178  and  _181
REMARK   73  A    between atoms: _181  and  _182
REMARK   74  A    between atoms: _184  and  _186
REMARK   75  A    between atoms: _186  and  _187
REMARK   76  A    between atoms: _186  and  _189
REMARK   77  A    between atoms: _189  and  _190
REMARK   78  A    between atoms: _193  and  _195
REMARK   79  A    between atoms: _195  and  _196
REMARK   80  A    between atoms: _195  and  _198
REMARK   81  A    between atoms: _198  and  _199
REMARK   82  A    between atoms: _201  and  _203
REMARK   83  A    between atoms: _203  and  _204
REMARK   84  A    between atoms: _203  and  _206
REMARK   85  A    between atoms: _209  and  _211
REMARK   86  A    between atoms: _211  and  _212
REMARK   87  A    between atoms: _211  and  _214
REMARK   88  A    between atoms: _214  and  _215
REMARK   89  A    between atoms: _218  and  _220
REMARK   90  A    between atoms: _220  and  _221
REMARK   91  A    between atoms: _220  and  _223
REMARK   92  A    between atoms: _223  and  _224
REMARK   93  A    between atoms: _224  and  _225
REMARK   94  A    between atoms: _230  and  _232
REMARK   95  A    between atoms: _232  and  _233
REMARK   96  A    between atoms: _235  and  _237
REMARK   97  A    between atoms: _237  and  _238
REMARK   98  A    between atoms: _237  and  _240
REMARK   99  A    between atoms: _240  and  _241
REMARK  100  A    between atoms: _244  and  _246
REMARK  101  A    between atoms: _246  and  _247
REMARK  102  A    between atoms: _246  and  _249
REMARK  103  A    between atoms: _249  and  _250
REMARK  104  A    between atoms: _253  and  _255
REMARK  105  A    between atoms: _255  and  _256
REMARK  106  A    between atoms: _255  and  _258
REMARK  107  A    between atoms: _258  and  _259
REMARK  108  A    between atoms: _262  and  _264
REMARK  109  A    between atoms: _264  and  _265
REMARK  110  A    between atoms: _264  and  _267
REMARK  111  A    between atoms: _267  and  _268
REMARK  112  A    between atoms: _273  and  _275
REMARK  113  A    between atoms: _275  and  _276
REMARK  114  A    between atoms: _275  and  _278
REMARK  115  A    between atoms: _278  and  _279
REMARK  116  A    between atoms: _279  and  _280
REMARK  117  A    between atoms: _283  and  _285
REMARK  118  A    between atoms: _285  and  _286
REMARK  119  A    between atoms: _289  and  _291
REMARK  120  A    between atoms: _291  and  _292
REMARK  121  A    between atoms: _291  and  _294
REMARK  122  A    between atoms: _294  and  _295
REMARK  123  A    between atoms: _295  and  _296
REMARK  124  A    between atoms: _301  and  _303
REMARK  125  A    between atoms: _303  and  _304
REMARK  126  A    between atoms: _307  and  _309
REMARK  127  A    between atoms: _309  and  _310
REMARK  128  A    between atoms: _309  and  _312
REMARK  129  A    between atoms: _312  and  _313
REMARK  130  A    between atoms: _316  and  _318
REMARK  131  A    between atoms: _318  and  _319
REMARK  132  A    between atoms: _318  and  _321
REMARK  133  A    between atoms: _321  and  _322
REMARK  134  A    between atoms: _325  and  _327
REMARK  135  A    between atoms: _327  and  _328
REMARK  136  A    between atoms: _327  and  _330
REMARK  137  A    between atoms: _330  and  _331
REMARK  138  A    between atoms: _334  and  _336
REMARK  139  A    between atoms: _336  and  _337
REMARK  140  A    between atoms: _336  and  _339
REMARK  141  A    between atoms: _339  and  _340
REMARK  142  A    between atoms: _343  and  _345
REMARK  143  A    between atoms: _345  and  _346
REMARK  144  A    between atoms: _345  and  _348
REMARK  145  A    between atoms: _348  and  _349
REMARK  146  A    between atoms: _351  and  _353
REMARK  147  A    between atoms: _353  and  _354
REMARK  148  A    between atoms: _356  and  _358
REMARK  149  A    between atoms: _358  and  _359
REMARK  150  A    between atoms: _358  and  _361
REMARK  151  A    between atoms: _361  and  _362
REMARK  152  A    between atoms: _365  and  _367
REMARK  153  A    between atoms: _367  and  _368
REMARK  154  A    between atoms: _367  and  _370
REMARK  155  A    between atoms: _370  and  _371
REMARK  156  A    between atoms: _374  and  _376
REMARK  157  A    between atoms: _376  and  _377
REMARK  158  A    between atoms: _376  and  _379
REMARK  159  A    between atoms: _379  and  _380
REMARK  160  A    between atoms: _383  and  _385
REMARK  161  A    between atoms: _385  and  _386
REMARK  162  A    between atoms: _385  and  _388
REMARK  163  A    between atoms: _388  and  _389
REMARK  164  A    between atoms: _392  and  _394
REMARK  165  A    between atoms: _394  and  _395
REMARK  166  A    between atoms: _394  and  _397
REMARK  167  A    between atoms: _397  and  _398
REMARK  168  A    between atoms: _403  and  _404
REMARK  169  A    between atoms: _406  and  _408
REMARK  170  A    between atoms: _408  and  _409
REMARK  171  A    between atoms: _408  and  _411
REMARK  172  A    between atoms: _411  and  _412
REMARK  173  A    between atoms: _412  and  _413
REMARK  174  A    between atoms: _418  and  _420
REMARK  175  A    between atoms: _420  and  _421
REMARK  176  A    between atoms: _420  and  _423
REMARK  177  A    between atoms: _423  and  _424
REMARK  178  A    between atoms: _427  and  _429
REMARK  179  A    between atoms: _429  and  _430
REMARK  180  A    between atoms: _429  and  _432
REMARK  181  A    between atoms: _432  and  _433
REMARK  182  A    between atoms: _438  and  _439
REMARK  183  A    between atoms: _441  and  _443
REMARK  184  A    between atoms: _443  and  _444
REMARK  185  A    between atoms: _443  and  _446
REMARK  186  A    between atoms: _446  and  _447
REMARK  187  A    between atoms: _447  and  _448
REMARK  188  A    between atoms: _453  and  _455
REMARK  189  A    between atoms: _455  and  _456
REMARK  190  A    between atoms: _455  and  _458
REMARK  191  A    between atoms: _458  and  _459
REMARK  192  A    between atoms: _464  and  _466
REMARK  193  A    between atoms: _466  and  _467
REMARK  194  A    between atoms: _466  and  _469
REMARK  195  A    between atoms: _469  and  _470
REMARK  196  A    between atoms: _473  and  _475
REMARK  197  A    between atoms: _475  and  _476
REMARK  198  A    between atoms: _475  and  _478
REMARK  199  A    between atoms: _478  and  _479
REMARK  200  A    between atoms: _489  and  _491
REMARK  201  A    between atoms: _491  and  _492
REMARK  202  A    between atoms: _491  and  _494
REMARK  203  A    between atoms: _494  and  _495
REMARK  204  A    between atoms: _495  and  _496
REMARK  205  A    between atoms: _501  and  _503
REMARK  206  A    between atoms: _503  and  _504
REMARK  207  A    between atoms: _503  and  _506
REMARK  208  A    between atoms: _506  and  _507
REMARK  209  A    between atoms: _509  and  _511
REMARK  210  A    between atoms: _511  and  _512
REMARK  211  A    between atoms: _511  and  _514
REMARK  212  A    between atoms: _514  and  _515
REMARK  213  A    between atoms: _518  and  _520
REMARK  214  A    between atoms: _520  and  _521
REMARK  215  A    between atoms: _520  and  _523
REMARK  216  A    between atoms: _523  and  _524
REMARK  217  A    between atoms: _527  and  _529
REMARK  218  A    between atoms: _529  and  _530
REMARK  219  A    between atoms: _529  and  _532
REMARK  220  A    between atoms: _532  and  _533
REMARK  221  A    between atoms: _536  and  _538
REMARK  222  A    between atoms: _538  and  _539
REMARK  223  A    between atoms: _538  and  _541
REMARK  224  A    between atoms: _541  and  _542
REMARK  225  A    between atoms: _545  and  _547
REMARK  226  A    between atoms: _547  and  _548
REMARK  227  A    between atoms: _550  and  _552
REMARK  228  A    between atoms: _552  and  _553
REMARK  229  A    between atoms: _552  and  _555
REMARK  230  A    between atoms: _555  and  _556
REMARK                            x       y       z     vdW  Elec       q    Type
REMARK                         _______ _______ _______ _____ _____    ______ ____
ROOT
ATOM      1  O   HOH     1      16.697  20.938  67.644  0.00  0.00    +0.000 OA
ENDROOT
TORSDOF 0
REMARK  Name = ../refined-set-2016/3fv3/3fv3_pocket.pdb
REMARK  230 active torsions:
REMARK  status: ('A' for Active; 'I' for Inactive)
REMARK    1  A    between atoms: _1  and  _3
REMARK    2  A    between atoms: _3  and  _4
REMARK    3  A    between atoms: _7  and  _8
REMARK    4  A    between atoms: _13  and  _15
REMARK    5  A    between atoms: _15  and  _16
REMARK    6  A    between atoms: _15  and  _18
REMARK    7  A    between atoms: _18  and  _19
REMARK    8  A    between atoms: _21  and  _23
REMARK    9  A    between atoms: _23  and  _24
REMARK   10  A    between atoms: _23  and  _26
REMARK   11  A    between atoms: _26  and  _27
REMARK   12  A    between atoms: _32  and  _33
REMARK   13  A    between atoms: _35  and  _37
REMARK   14  A    between atoms: _37  and  _38
REMARK   15  A    between atoms: _37  and  _40
REMARK   16  A    between atoms: _40  and  _41
REMARK   17  A    between atoms: _44  and  _46
REMARK   18  A    between atoms: _46  and  _47
REMARK   19  A    between atoms: _46  and  _49
REMARK   20  A    between atoms: _49  and  _50
REMARK   21  A    between atoms: _53  and  _55
REMARK   22  A    between atoms: _55  and  _56
REMARK   23  A    between atoms: _55  and  _58
REMARK   24  A    between atoms: _58  and  _59
REMARK   25  A    between atoms: _62  and  _64
REMARK   26  A    between atoms: _64  and  _65
REMARK   27  A    between atoms: _64  and  _67
REMARK   28  A    between atoms: _67  and  _68
REMARK   29  A    between atoms: _71  and  _73
REMARK   30  A    between atoms: _73  and  _74
REMARK   31  A    between atoms: _76  and  _78
REMARK   32  A    between atoms: _78  and  _79
REMARK   33  A    between atoms: _78  and  _81
REMARK   34  A    between atoms: _81  and  _82
REMARK   35  A    between atoms: _84  and  _86
REMARK   36  A    between atoms: _86  and  _87
REMARK   37  A    between atoms: _86  and  _89
REMARK   38  A    between atoms: _89  and  _90
REMARK   39  A    between atoms: _92  and  _94
REMARK   40  A    between atoms: _94  and  _95
REMARK   41  A    between atoms: _94  and  _97
REMARK   42  A    between atoms: _97  and  _98
REMARK   43  A    between atoms: _101  and  _103
REMARK   44  A    between atoms: _103  and  _104
REMARK   45  A    between atoms: _103  and  _106
REMARK   46  A    between atoms: _106  and  _107
REMARK   47  A    between atoms: _117  and  _119
REMARK   48  A    between atoms: _119  and  _120
REMARK   49  A    between atoms: _119  and  _122
REMARK   50  A    between atoms: _122  and  _123
REMARK   51  A    between atoms: _126  and  _128
REMARK   52  A    between atoms: _128  and  _129
REMARK   53  A    between atoms: _128  and  _131
REMARK   54  A    between atoms: _131  and  _132
REMARK   55  A    between atoms: _132  and  _133
REMARK   56  A    between atoms: _133  and  _134
REMARK   57  A    between atoms: _143  and  _145
REMARK   58  A    between atoms: _145  and  _146
REMARK   59  A    between atoms: _145  and  _148
REMARK   60  A    between atoms: _148  and  _149
REMARK   61  A    between atoms: _154  and  _155
REMARK   62  A    between atoms: _157  and  _159
REMARK   63  A    between atoms: _159  and  _160
REMARK   64  A    between atoms: _162  and  _164
REMARK   65  A    between atoms: _164  and  _165
REMARK   66  A    between atoms: _164  and  _167
REMARK   67  A    between atoms: _167  and  _168
REMARK   68  A    between atoms: _171  and  _173
REMARK   69  A    between atoms: _173  and  _174
REMARK   70  A    between atoms: _176  and  _178
REMARK   71  A    between atoms: _178  and  _179
REMARK   72  A    between atoms: _178  and  _181
REMARK   73  A    between atoms: _181  and  _182
REMARK   74  A    between atoms: _184  and  _186
REMARK   75  A    between atoms: _186  and  _187
REMARK   76  A    between atoms: _186  and  _189
REMARK   77  A    between atoms: _189  and  _190
REMARK   78  A    between atoms: _193  and  _195
REMARK   79  A    between atoms: _195  and  _196
REMARK   80  A    between atoms: _195  and  _198
REMARK   81  A    between atoms: _198  and  _199
REMARK   82  A    between atoms: _201  and  _203
REMARK   83  A    between atoms: _203  and  _204
REMARK   84  A    between atoms: _203  and  _206
REMARK   85  A    between atoms: _209  and  _211
REMARK   86  A    between atoms: _211  and  _212
REMARK   87  A    between atoms: _211  and  _214
REMARK   88  A    between atoms: _214  and  _215
REMARK   89  A    between atoms: _218  and  _220
REMARK   90  A    between atoms: _220  and  _221
REMARK   91  A    between atoms: _220  and  _223
REMARK   92  A    between atoms: _223  and  _224
REMARK   93  A    between atoms: _224  and  _225
REMARK   94  A    between atoms: _230  and  _232
REMARK   95  A    between atoms: _232  and  _233
REMARK   96  A    between atoms: _235  and  _237
REMARK   97  A    between atoms: _237  and  _238
REMARK   98  A    between atoms: _237  and  _240
REMARK   99  A    between atoms: _240  and  _241
REMARK  100  A    between atoms: _244  and  _246
REMARK  101  A    between atoms: _246  and  _247
REMARK  102  A    between atoms: _246  and  _249
REMARK  103  A    between atoms: _249  and  _250
REMARK  104  A    between atoms: _253  and  _255
REMARK  105  A    between atoms: _255  and  _256
REMARK  106  A    between atoms: _255  and  _258
REMARK  107  A    between atoms: _258  and  _259
REMARK  108  A    between atoms: _262  and  _264
REMARK  109  A    between atoms: _264  and  _265
REMARK  110  A    between atoms: _264  and  _267
REMARK  111  A    between atoms: _267  and  _268
REMARK  112  A    between atoms: _273  and  _275
REMARK  113  A    between atoms: _275  and  _276
REMARK  114  A    between atoms: _275  and  _278
REMARK  115  A    between atoms: _278  and  _279
REMARK  116  A    between atoms: _279  and  _280
REMARK  117  A    between atoms: _283  and  _285
REMARK  118  A    between atoms: _285  and  _286
REMARK  119  A    between atoms: _289  and  _291
REMARK  120  A    between atoms: _291  and  _292
REMARK  121  A    between atoms: _291  and  _294
REMARK  122  A    between atoms: _294  and  _295
REMARK  123  A    between atoms: _295  and  _296
REMARK  124  A    between atoms: _301  and  _303
REMARK  125  A    between atoms: _303  and  _304
REMARK  126  A    between atoms: _307  and  _309
REMARK  127  A    between atoms: _309  and  _310
REMARK  128  A    between atoms: _309  and  _312
REMARK  129  A    between atoms: _312  and  _313
REMARK  130  A    between atoms: _316  and  _318
REMARK  131  A    between atoms: _318  and  _319
REMARK  132  A    between atoms: _318  and  _321
REMARK  133  A    between atoms: _321  and  _322
REMARK  134  A    between atoms: _325  and  _327
REMARK  135  A    between atoms: _327  and  _328
REMARK  136  A    between atoms: _327  and  _330
REMARK  137  A    between atoms: _330  and  _331
REMARK  138  A    between atoms: _334  and  _336
REMARK  139  A    between atoms: _336  and  _337
REMARK  140  A    between atoms: _336  and  _339
REMARK  141  A    between atoms: _339  and  _340
REMARK  142  A    between atoms: _343  and  _345
REMARK  143  A    between atoms: _345  and  _346
REMARK  144  A    between atoms: _345  and  _348
REMARK  145  A    between atoms: _348  and  _349
REMARK  146  A    between atoms: _351  and  _353
REMARK  147  A    between atoms: _353  and  _354
REMARK  148  A    between atoms: _356  and  _358
REMARK  149  A    between atoms: _358  and  _359
REMARK  150  A    between atoms: _358  and  _361
REMARK  151  A    between atoms: _361  and  _362
REMARK  152  A    between atoms: _365  and  _367
REMARK  153  A    between atoms: _367  and  _368
REMARK  154  A    between atoms: _367  and  _370
REMARK  155  A    between atoms: _370  and  _371
REMARK  156  A    between atoms: _374  and  _376
REMARK  157  A    between atoms: _376  and  _377
REMARK  158  A    between atoms: _376  and  _379
REMARK  159  A    between atoms: _379  and  _380
REMARK  160  A    between atoms: _383  and  _385
REMARK  161  A    between atoms: _385  and  _386
REMARK  162  A    between atoms: _385  and  _388
REMARK  163  A    between atoms: _388  and  _389
REMARK  164  A    between atoms: _392  and  _394
REMARK  165  A    between atoms: _394  and  _395
REMARK  166  A    between atoms: _394  and  _397
REMARK  167  A    between atoms: _397  and  _398
REMARK  168  A    between atoms: _403  and  _404
REMARK  169  A    between atoms: _406  and  _408
REMARK  170  A    between atoms: _408  and  _409
REMARK  171  A    between atoms: _408  and  _411
REMARK  172  A    between atoms: _411  and  _412
REMARK  173  A    between atoms: _412  and  _413
REMARK  174  A    between atoms: _418  and  _420
REMARK  175  A    between atoms: _420  and  _421
REMARK  176  A    between atoms: _420  and  _423
REMARK  177  A    between atoms: _423  and  _424
REMARK  178  A    between atoms: _427  and  _429
REMARK  179  A    between atoms: _429  and  _430
REMARK  180  A    between atoms: _429  and  _432
REMARK  181  A    between atoms: _432  and  _433
REMARK  182  A    between atoms: _438  and  _439
REMARK  183  A    between atoms: _441  and  _443
REMARK  184  A    between atoms: _443  and  _444
REMARK  185  A    between atoms: _443  and  _446
REMARK  186  A    between atoms: _446  and  _447
REMARK  187  A    between atoms: _447  and  _448
REMARK  188  A    between atoms: _453  and  _455
REMARK  189  A    between atoms: _455  and  _456
REMARK  190  A    between atoms: _455  and  _458
REMARK  191  A    between atoms: _458  and  _459
REMARK  192  A    between atoms: _464  and  _466
REMARK  193  A    between atoms: _466  and  _467
REMARK  194  A    between atoms: _466  and  _469
REMARK  195  A    between atoms: _469  and  _470
REMARK  196  A    between atoms: _473  and  _475
REMARK  197  A    between atoms: _475  and  _476
REMARK  198  A    between atoms: _475  and  _478
REMARK  199  A    between atoms: _478  and  _479
REMARK  200  A    between atoms: _489  and  _491
REMARK  201  A    between atoms: _491  and  _492
REMARK  202  A    between atoms: _491  and  _494
REMARK  203  A    between atoms: _494  and  _495
REMARK  204  A    between atoms: _495  and  _496
REMARK  205  A    between atoms: _501  and  _503
REMARK  206  A    between atoms: _503  and  _504
REMARK  207  A    between atoms: _503  and  _506
REMARK  208  A    between atoms: _506  and  _507
REMARK  209  A    between atoms: _509  and  _511
REMARK  210  A    between atoms: _511  and  _512
REMARK  211  A    between atoms: _511  and  _514
REMARK  212  A    between atoms: _514  and  _515
REMARK  213  A    between atoms: _518  and  _520
REMARK  214  A    between atoms: _520  and  _521
REMARK  215  A    between atoms: _520  and  _523
REMARK  216  A    between atoms: _523  and  _524
REMARK  217  A    between atoms: _527  and  _529
REMARK  218  A    between atoms: _529  and  _530
REMARK  219  A    between atoms: _529  and  _532
REMARK  220  A    between atoms: _532  and  _533
REMARK  221  A    between atoms: _536  and  _538
REMARK  222  A    between atoms: _538  and  _539
REMARK  223  A    between atoms: _538  and  _541
REMARK  224  A    between atoms: _541  and  _542
REMARK  225  A    between atoms: _545  and  _547
REMARK  226  A    between atoms: _547  and  _548
REMARK  227  A    between atoms: _550  and  _552
REMARK  228  A    between atoms: _552  and  _553
REMARK  229  A    between atoms: _552  and  _555
REMARK  230  A    between atoms: _555  and  _556
REMARK                            x       y       z     vdW  Elec       q    Type
REMARK                         _______ _______ _______ _____ _____    ______ ____
ROOT
ATOM      1  O   HOH     1      18.142  19.702  69.495  0.00  0.00    +0.000 OA
ENDROOT
TORSDOF 0
REMARK  Name = ../refined-set-2016/3fv3/3fv3_pocket.pdb
REMARK  230 active torsions:
REMARK  status: ('A' for Active; 'I' for Inactive)
REMARK    1  A    between atoms: _1  and  _3
REMARK    2  A    between atoms: _3  and  _4
REMARK    3  A    between atoms: _7  and  _8
REMARK    4  A    between atoms: _13  and  _15
REMARK    5  A    between atoms: _15  and  _16
REMARK    6  A    between atoms: _15  and  _18
REMARK    7  A    between atoms: _18  and  _19
REMARK    8  A    between atoms: _21  and  _23
REMARK    9  A    between atoms: _23  and  _24
REMARK   10  A    between atoms: _23  and  _26
REMARK   11  A    between atoms: _26  and  _27
REMARK   12  A    between atoms: _32  and  _33
REMARK   13  A    between atoms: _35  and  _37
REMARK   14  A    between atoms: _37  and  _38
REMARK   15  A    between atoms: _37  and  _40
REMARK   16  A    between atoms: _40  and  _41
REMARK   17  A    between atoms: _44  and  _46
REMARK   18  A    between atoms: _46  and  _47
REMARK   19  A    between atoms: _46  and  _49
REMARK   20  A    between atoms: _49  and  _50
REMARK   21  A    between atoms: _53  and  _55
REMARK   22  A    between atoms: _55  and  _56
REMARK   23  A    between atoms: _55  and  _58
REMARK   24  A    between atoms: _58  and  _59
REMARK   25  A    between atoms: _62  and  _64
REMARK   26  A    between atoms: _64  and  _65
REMARK   27  A    between atoms: _64  and  _67
REMARK   28  A    between atoms: _67  and  _68
REMARK   29  A    between atoms: _71  and  _73
REMARK   30  A    between atoms: _73  and  _74
REMARK   31  A    between atoms: _76  and  _78
REMARK   32  A    between atoms: _78  and  _79
REMARK   33  A    between atoms: _78  and  _81
REMARK   34  A    between atoms: _81  and  _82
REMARK   35  A    between atoms: _84  and  _86
REMARK   36  A    between atoms: _86  and  _87
REMARK   37  A    between atoms: _86  and  _89
REMARK   38  A    between atoms: _89  and  _90
REMARK   39  A    between atoms: _92  and  _94
REMARK   40  A    between atoms: _94  and  _95
REMARK   41  A    between atoms: _94  and  _97
REMARK   42  A    between atoms: _97  and  _98
REMARK   43  A    between atoms: _101  and  _103
REMARK   44  A    between atoms: _103  and  _104
REMARK   45  A    between atoms: _103  and  _106
REMARK   46  A    between atoms: _106  and  _107
REMARK   47  A    between atoms: _117  and  _119
REMARK   48  A    between atoms: _119  and  _120
REMARK   49  A    between atoms: _119  and  _122
REMARK   50  A    between atoms: _122  and  _123
REMARK   51  A    between atoms: _126  and  _128
REMARK   52  A    between atoms: _128  and  _129
REMARK   53  A    between atoms: _128  and  _131
REMARK   54  A    between atoms: _131  and  _132
REMARK   55  A    between atoms: _132  and  _133
REMARK   56  A    between atoms: _133  and  _134
REMARK   57  A    between atoms: _143  and  _145
REMARK   58  A    between atoms: _145  and  _146
REMARK   59  A    between atoms: _145  and  _148
REMARK   60  A    between atoms: _148  and  _149
REMARK   61  A    between atoms: _154  and  _155
REMARK   62  A    between atoms: _157  and  _159
REMARK   63  A    between atoms: _159  and  _160
REMARK   64  A    between atoms: _162  and  _164
REMARK   65  A    between atoms: _164  and  _165
REMARK   66  A    between atoms: _164  and  _167
REMARK   67  A    between atoms: _167  and  _168
REMARK   68  A    between atoms: _171  and  _173
REMARK   69  A    between atoms: _173  and  _174
REMARK   70  A    between atoms: _176  and  _178
REMARK   71  A    between atoms: _178  and  _179
REMARK   72  A    between atoms: _178  and  _181
REMARK   73  A    between atoms: _181  and  _182
REMARK   74  A    between atoms: _184  and  _186
REMARK   75  A    between atoms: _186  and  _187
REMARK   76  A    between atoms: _186  and  _189
REMARK   77  A    between atoms: _189  and  _190
REMARK   78  A    between atoms: _193  and  _195
REMARK   79  A    between atoms: _195  and  _196
REMARK   80  A    between atoms: _195  and  _198
REMARK   81  A    between atoms: _198  and  _199
REMARK   82  A    between atoms: _201  and  _203
REMARK   83  A    between atoms: _203  and  _204
REMARK   84  A    between atoms: _203  and  _206
REMARK   85  A    between atoms: _209  and  _211
REMARK   86  A    between atoms: _211  and  _212
REMARK   87  A    between atoms: _211  and  _214
REMARK   88  A    between atoms: _214  and  _215
REMARK   89  A    between atoms: _218  and  _220
REMARK   90  A    between atoms: _220  and  _221
REMARK   91  A    between atoms: _220  and  _223
REMARK   92  A    between atoms: _223  and  _224
REMARK   93  A    between atoms: _224  and  _225
REMARK   94  A    between atoms: _230  and  _232
REMARK   95  A    between atoms: _232  and  _233
REMARK   96  A    between atoms: _235  and  _237
REMARK   97  A    between atoms: _237  and  _238
REMARK   98  A    between atoms: _237  and  _240
REMARK   99  A    between atoms: _240  and  _241
REMARK  100  A    between atoms: _244  and  _246
REMARK  101  A    between atoms: _246  and  _247
REMARK  102  A    between atoms: _246  and  _249
REMARK  103  A    between atoms: _249  and  _250
REMARK  104  A    between atoms: _253  and  _255
REMARK  105  A    between atoms: _255  and  _256
REMARK  106  A    between atoms: _255  and  _258
REMARK  107  A    between atoms: _258  and  _259
REMARK  108  A    between atoms: _262  and  _264
REMARK  109  A    between atoms: _264  and  _265
REMARK  110  A    between atoms: _264  and  _267
REMARK  111  A    between atoms: _267  and  _268
REMARK  112  A    between atoms: _273  and  _275
REMARK  113  A    between atoms: _275  and  _276
REMARK  114  A    between atoms: _275  and  _278
REMARK  115  A    between atoms: _278  and  _279
REMARK  116  A    between atoms: _279  and  _280
REMARK  117  A    between atoms: _283  and  _285
REMARK  118  A    between atoms: _285  and  _286
REMARK  119  A    between atoms: _289  and  _291
REMARK  120  A    between atoms: _291  and  _292
REMARK  121  A    between atoms: _291  and  _294
REMARK  122  A    between atoms: _294  and  _295
REMARK  123  A    between atoms: _295  and  _296
REMARK  124  A    between atoms: _301  and  _303
REMARK  125  A    between atoms: _303  and  _304
REMARK  126  A    between atoms: _307  and  _309
REMARK  127  A    between atoms: _309  and  _310
REMARK  128  A    between atoms: _309  and  _312
REMARK  129  A    between atoms: _312  and  _313
REMARK  130  A    between atoms: _316  and  _318
REMARK  131  A    between atoms: _318  and  _319
REMARK  132  A    between atoms: _318  and  _321
REMARK  133  A    between atoms: _321  and  _322
REMARK  134  A    between atoms: _325  and  _327
REMARK  135  A    between atoms: _327  and  _328
REMARK  136  A    between atoms: _327  and  _330
REMARK  137  A    between atoms: _330  and  _331
REMARK  138  A    between atoms: _334  and  _336
REMARK  139  A    between atoms: _336  and  _337
REMARK  140  A    between atoms: _336  and  _339
REMARK  141  A    between atoms: _339  and  _340
REMARK  142  A    between atoms: _343  and  _345
REMARK  143  A    between atoms: _345  and  _346
REMARK  144  A    between atoms: _345  and  _348
REMARK  145  A    between atoms: _348  and  _349
REMARK  146  A    between atoms: _351  and  _353
REMARK  147  A    between atoms: _353  and  _354
REMARK  148  A    between atoms: _356  and  _358
REMARK  149  A    between atoms: _358  and  _359
REMARK  150  A    between atoms: _358  and  _361
REMARK  151  A    between atoms: _361  and  _362
REMARK  152  A    between atoms: _365  and  _367
REMARK  153  A    between atoms: _367  and  _368
REMARK  154  A    between atoms: _367  and  _370
REMARK  155  A    between atoms: _370  and  _371
REMARK  156  A    between atoms: _374  and  _376
REMARK  157  A    between atoms: _376  and  _377
REMARK  158  A    between atoms: _376  and  _379
REMARK  159  A    between atoms: _379  and  _380
REMARK  160  A    between atoms: _383  and  _385
REMARK  161  A    between atoms: _385  and  _386
REMARK  162  A    between atoms: _385  and  _388
REMARK  163  A    between atoms: _388  and  _389
REMARK  164  A    between atoms: _392  and  _394
REMARK  165  A    between atoms: _394  and  _395
REMARK  166  A    between atoms: _394  and  _397
REMARK  167  A    between atoms: _397  and  _398
REMARK  168  A    between atoms: _403  and  _404
REMARK  169  A    between atoms: _406  and  _408
REMARK  170  A    between atoms: _408  and  _409
REMARK  171  A    between atoms: _408  and  _411
REMARK  172  A    between atoms: _411  and  _412
REMARK  173  A    between atoms: _412  and  _413
REMARK  174  A    between atoms: _418  and  _420
REMARK  175  A    between atoms: _420  and  _421
REMARK  176  A    between atoms: _420  and  _423
REMARK  177  A    between atoms: _423  and  _424
REMARK  178  A    between atoms: _427  and  _429
REMARK  179  A    between atoms: _429  and  _430
REMARK  180  A    between atoms: _429  and  _432
REMARK  181  A    between atoms: _432  and  _433
REMARK  182  A    between atoms: _438  and  _439
REMARK  183  A    between atoms: _441  and  _443
REMARK  184  A    between atoms: _443  and  _444
REMARK  185  A    between atoms: _443  and  _446
REMARK  186  A    between atoms: _446  and  _447
REMARK  187  A    between atoms: _447  and  _448
REMARK  188  A    between atoms: _453  and  _455
REMARK  189  A    between atoms: _455  and  _456
REMARK  190  A    between atoms: _455  and  _458
REMARK  191  A    between atoms: _458  and  _459
REMARK  192  A    between atoms: _464  and  _466
REMARK  193  A    between atoms: _466  and  _467
REMARK  194  A    between atoms: _466  and  _469
REMARK  195  A    between atoms: _469  and  _470
REMARK  196  A    between atoms: _473  and  _475
REMARK  197  A    between atoms: _475  and  _476
REMARK  198  A    between atoms: _475  and  _478
REMARK  199  A    between atoms: _478  and  _479
REMARK  200  A    between atoms: _489  and  _491
REMARK  201  A    between atoms: _491  and  _492
REMARK  202  A    between atoms: _491  and  _494
REMARK  203  A    between atoms: _494  and  _495
REMARK  204  A    between atoms: _495  and  _496
REMARK  205  A    between atoms: _501  and  _503
REMARK  206  A    between atoms: _503  and  _504
REMARK  207  A    between atoms: _503  and  _506
REMARK  208  A    between atoms: _506  and  _507
REMARK  209  A    between atoms: _509  and  _511
REMARK  210  A    between atoms: _511  and  _512
REMARK  211  A    between atoms: _511  and  _514
REMARK  212  A    between atoms: _514  and  _515
REMARK  213  A    between atoms: _518  and  _520
REMARK  214  A    between atoms: _520  and  _521
REMARK  215  A    between atoms: _520  and  _523
REMARK  216  A    between atoms: _523  and  _524
REMARK  217  A    between atoms: _527  and  _529
REMARK  218  A    between atoms: _529  and  _530
REMARK  219  A    between atoms: _529  and  _532
REMARK  220  A    between atoms: _532  and  _533
REMARK  221  A    between atoms: _536  and  _538
REMARK  222  A    between atoms: _538  and  _539
REMARK  223  A    between atoms: _538  and  _541
REMARK  224  A    between atoms: _541  and  _542
REMARK  225  A    between atoms: _545  and  _547
REMARK  226  A    between atoms: _547  and  _548
REMARK  227  A    between atoms: _550  and  _552
REMARK  228  A    between atoms: _552  and  _553
REMARK  229  A    between atoms: _552  and  _555
REMARK  230  A    between atoms: _555  and  _556
REMARK                            x       y       z     vdW  Elec       q    Type
REMARK                         _______ _______ _______ _____ _____    ______ ____
ROOT
ATOM      1  O   HOH     1      22.310  24.783  68.181  0.00  0.00    +0.000 OA
ENDROOT
TORSDOF 0
REMARK  Name = ../refined-set-2016/3fv3/3fv3_pocket.pdb
REMARK  230 active torsions:
REMARK  status: ('A' for Active; 'I' for Inactive)
REMARK    1  A    between atoms: _1  and  _3
REMARK    2  A    between atoms: _3  and  _4
REMARK    3  A    between atoms: _7  and  _8
REMARK    4  A    between atoms: _13  and  _15
REMARK    5  A    between atoms: _15  and  _16
REMARK    6  A    between atoms: _15  and  _18
REMARK    7  A    between atoms: _18  and  _19
REMARK    8  A    between atoms: _21  and  _23
REMARK    9  A    between atoms: _23  and  _24
REMARK   10  A    between atoms: _23  and  _26
REMARK   11  A    between atoms: _26  and  _27
REMARK   12  A    between atoms: _32  and  _33
REMARK   13  A    between atoms: _35  and  _37
REMARK   14  A    between atoms: _37  and  _38
REMARK   15  A    between atoms: _37  and  _40
REMARK   16  A    between atoms: _40  and  _41
REMARK   17  A    between atoms: _44  and  _46
REMARK   18  A    between atoms: _46  and  _47
REMARK   19  A    between atoms: _46  and  _49
REMARK   20  A    between atoms: _49  and  _50
REMARK   21  A    between atoms: _53  and  _55
REMARK   22  A    between atoms: _55  and  _56
REMARK   23  A    between atoms: _55  and  _58
REMARK   24  A    between atoms: _58  and  _59
REMARK   25  A    between atoms: _62  and  _64
REMARK   26  A    between atoms: _64  and  _65
REMARK   27  A    between atoms: _64  and  _67
REMARK   28  A    between atoms: _67  and  _68
REMARK   29  A    between atoms: _71  and  _73
REMARK   30  A    between atoms: _73  and  _74
REMARK   31  A    between atoms: _76  and  _78
REMARK   32  A    between atoms: _78  and  _79
REMARK   33  A    between atoms: _78  and  _81
REMARK   34  A    between atoms: _81  and  _82
REMARK   35  A    between atoms: _84  and  _86
REMARK   36  A    between atoms: _86  and  _87
REMARK   37  A    between atoms: _86  and  _89
REMARK   38  A    between atoms: _89  and  _90
REMARK   39  A    between atoms: _92  and  _94
REMARK   40  A    between atoms: _94  and  _95
REMARK   41  A    between atoms: _94  and  _97
REMARK   42  A    between atoms: _97  and  _98
REMARK   43  A    between atoms: _101  and  _103
REMARK   44  A    between atoms: _103  and  _104
REMARK   45  A    between atoms: _103  and  _106
REMARK   46  A    between atoms: _106  and  _107
REMARK   47  A    between atoms: _117  and  _119
REMARK   48  A    between atoms: _119  and  _120
REMARK   49  A    between atoms: _119  and  _122
REMARK   50  A    between atoms: _122  and  _123
REMARK   51  A    between atoms: _126  and  _128
REMARK   52  A    between atoms: _128  and  _129
REMARK   53  A    between atoms: _128  and  _131
REMARK   54  A    between atoms: _131  and  _132
REMARK   55  A    between atoms: _132  and  _133
REMARK   56  A    between atoms: _133  and  _134
REMARK   57  A    between atoms: _143  and  _145
REMARK   58  A    between atoms: _145  and  _146
REMARK   59  A    between atoms: _145  and  _148
REMARK   60  A    between atoms: _148  and  _149
REMARK   61  A    between atoms: _154  and  _155
REMARK   62  A    between atoms: _157  and  _159
REMARK   63  A    between atoms: _159  and  _160
REMARK   64  A    between atoms: _162  and  _164
REMARK   65  A    between atoms: _164  and  _165
REMARK   66  A    between atoms: _164  and  _167
REMARK   67  A    between atoms: _167  and  _168
REMARK   68  A    between atoms: _171  and  _173
REMARK   69  A    between atoms: _173  and  _174
REMARK   70  A    between atoms: _176  and  _178
REMARK   71  A    between atoms: _178  and  _179
REMARK   72  A    between atoms: _178  and  _181
REMARK   73  A    between atoms: _181  and  _182
REMARK   74  A    between atoms: _184  and  _186
REMARK   75  A    between atoms: _186  and  _187
REMARK   76  A    between atoms: _186  and  _189
REMARK   77  A    between atoms: _189  and  _190
REMARK   78  A    between atoms: _193  and  _195
REMARK   79  A    between atoms: _195  and  _196
REMARK   80  A    between atoms: _195  and  _198
REMARK   81  A    between atoms: _198  and  _199
REMARK   82  A    between atoms: _201  and  _203
REMARK   83  A    between atoms: _203  and  _204
REMARK   84  A    between atoms: _203  and  _206
REMARK   85  A    between atoms: _209  and  _211
REMARK   86  A    between atoms: _211  and  _212
REMARK   87  A    between atoms: _211  and  _214
REMARK   88  A    between atoms: _214  and  _215
REMARK   89  A    between atoms: _218  and  _220
REMARK   90  A    between atoms: _220  and  _221
REMARK   91  A    between atoms: _220  and  _223
REMARK   92  A    between atoms: _223  and  _224
REMARK   93  A    between atoms: _224  and  _225
REMARK   94  A    between atoms: _230  and  _232
REMARK   95  A    between atoms: _232  and  _233
REMARK   96  A    between atoms: _235  and  _237
REMARK   97  A    between atoms: _237  and  _238
REMARK   98  A    between atoms: _237  and  _240
REMARK   99  A    between atoms: _240  and  _241
REMARK  100  A    between atoms: _244  and  _246
REMARK  101  A    between atoms: _246  and  _247
REMARK  102  A    between atoms: _246  and  _249
REMARK  103  A    between atoms: _249  and  _250
REMARK  104  A    between atoms: _253  and  _255
REMARK  105  A    between atoms: _255  and  _256
REMARK  106  A    between atoms: _255  and  _258
REMARK  107  A    between atoms: _258  and  _259
REMARK  108  A    between atoms: _262  and  _264
REMARK  109  A    between atoms: _264  and  _265
REMARK  110  A    between atoms: _264  and  _267
REMARK  111  A    between atoms: _267  and  _268
REMARK  112  A    between atoms: _273  and  _275
REMARK  113  A    between atoms: _275  and  _276
REMARK  114  A    between atoms: _275  and  _278
REMARK  115  A    between atoms: _278  and  _279
REMARK  116  A    between atoms: _279  and  _280
REMARK  117  A    between atoms: _283  and  _285
REMARK  118  A    between atoms: _285  and  _286
REMARK  119  A    between atoms: _289  and  _291
REMARK  120  A    between atoms: _291  and  _292
REMARK  121  A    between atoms: _291  and  _294
REMARK  122  A    between atoms: _294  and  _295
REMARK  123  A    between atoms: _295  and  _296
REMARK  124  A    between atoms: _301  and  _303
REMARK  125  A    between atoms: _303  and  _304
REMARK  126  A    between atoms: _307  and  _309
REMARK  127  A    between atoms: _309  and  _310
REMARK  128  A    between atoms: _309  and  _312
REMARK  129  A    between atoms: _312  and  _313
REMARK  130  A    between atoms: _316  and  _318
REMARK  131  A    between atoms: _318  and  _319
REMARK  132  A    between atoms: _318  and  _321
REMARK  133  A    between atoms: _321  and  _322
REMARK  134  A    between atoms: _325  and  _327
REMARK  135  A    between atoms: _327  and  _328
REMARK  136  A    between atoms: _327  and  _330
REMARK  137  A    between atoms: _330  and  _331
REMARK  138  A    between atoms: _334  and  _336
REMARK  139  A    between atoms: _336  and  _337
REMARK  140  A    between atoms: _336  and  _339
REMARK  141  A    between atoms: _339  and  _340
REMARK  142  A    between atoms: _343  and  _345
REMARK  143  A    between atoms: _345  and  _346
REMARK  144  A    between atoms: _345  and  _348
REMARK  145  A    between atoms: _348  and  _349
REMARK  146  A    between atoms: _351  and  _353
REMARK  147  A    between atoms: _353  and  _354
REMARK  148  A    between atoms: _356  and  _358
REMARK  149  A    between atoms: _358  and  _359
REMARK  150  A    between atoms: _358  and  _361
REMARK  151  A    between atoms: _361  and  _362
REMARK  152  A    between atoms: _365  and  _367
REMARK  153  A    between atoms: _367  and  _368
REMARK  154  A    between atoms: _367  and  _370
REMARK  155  A    between atoms: _370  and  _371
REMARK  156  A    between atoms: _374  and  _376
REMARK  157  A    between atoms: _376  and  _377
REMARK  158  A    between atoms: _376  and  _379
REMARK  159  A    between atoms: _379  and  _380
REMARK  160  A    between atoms: _383  and  _385
REMARK  161  A    between atoms: _385  and  _386
REMARK  162  A    between atoms: _385  and  _388
REMARK  163  A    between atoms: _388  and  _389
REMARK  164  A    between atoms: _392  and  _394
REMARK  165  A    between atoms: _394  and  _395
REMARK  166  A    between atoms: _394  and  _397
REMARK  167  A    between atoms: _397  and  _398
REMARK  168  A    between atoms: _403  and  _404
REMARK  169  A    between atoms: _406  and  _408
REMARK  170  A    between atoms: _408  and  _409
REMARK  171  A    between atoms: _408  and  _411
REMARK  172  A    between atoms: _411  and  _412
REMARK  173  A    between atoms: _412  and  _413
REMARK  174  A    between atoms: _418  and  _420
REMARK  175  A    between atoms: _420  and  _421
REMARK  176  A    between atoms: _420  and  _423
REMARK  177  A    between atoms: _423  and  _424
REMARK  178  A    between atoms: _427  and  _429
REMARK  179  A    between atoms: _429  and  _430
REMARK  180  A    between atoms: _429  and  _432
REMARK  181  A    between atoms: _432  and  _433
REMARK  182  A    between atoms: _438  and  _439
REMARK  183  A    between atoms: _441  and  _443
REMARK  184  A    between atoms: _443  and  _444
REMARK  185  A    between atoms: _443  and  _446
REMARK  186  A    between atoms: _446  and  _447
REMARK  187  A    between atoms: _447  and  _448
REMARK  188  A    between atoms: _453  and  _455
REMARK  189  A    between atoms: _455  and  _456
REMARK  190  A    between atoms: _455  and  _458
REMARK  191  A    between atoms: _458  and  _459
REMARK  192  A    between atoms: _464  and  _466
REMARK  193  A    between atoms: _466  and  _467
REMARK  194  A    between atoms: _466  and  _469
REMARK  195  A    between atoms: _469  and  _470
REMARK  196  A    between atoms: _473  and  _475
REMARK  197  A    between atoms: _475  and  _476
REMARK  198  A    between atoms: _475  and  _478
REMARK  199  A    between atoms: _478  and  _479
REMARK  200  A    between atoms: _489  and  _491
REMARK  201  A    between atoms: _491  and  _492
REMARK  202  A    between atoms: _491  and  _494
REMARK  203  A    between atoms: _494  and  _495
REMARK  204  A    between atoms: _495  and  _496
REMARK  205  A    between atoms: _501  and  _503
REMARK  206  A    between atoms: _503  and  _504
REMARK  207  A    between atoms: _503  and  _506
REMARK  208  A    between atoms: _506  and  _507
REMARK  209  A    between atoms: _509  and  _511
REMARK  210  A    between atoms: _511  and  _512
REMARK  211  A    between atoms: _511  and  _514
REMARK  212  A    between atoms: _514  and  _515
REMARK  213  A    between atoms: _518  and  _520
REMARK  214  A    between atoms: _520  and  _521
REMARK  215  A    between atoms: _520  and  _523
REMARK  216  A    between atoms: _523  and  _524
REMARK  217  A    between atoms: _527  and  _529
REMARK  218  A    between atoms: _529  and  _530
REMARK  219  A    between atoms: _529  and  _532
REMARK  220  A    between atoms: _532  and  _533
REMARK  221  A    between atoms: _536  and  _538
REMARK  222  A    between atoms: _538  and  _539
REMARK  223  A    between atoms: _538  and  _541
REMARK  224  A    between atoms: _541  and  _542
REMARK  225  A    between atoms: _545  and  _547
REMARK  226  A    between atoms: _547  and  _548
REMARK  227  A    between atoms: _550  and  _552
REMARK  228  A    between atoms: _552  and  _553
REMARK  229  A    between atoms: _552  and  _555
REMARK  230  A    between atoms: _555  and  _556
REMARK                            x       y       z     vdW  Elec       q    Type
REMARK                         _______ _______ _______ _____ _____    ______ ____
ROOT
ATOM      1  O   HOH     1      21.978  27.426  68.410  0.00  0.00    +0.000 OA
ENDROOT
TORSDOF 0
REMARK  Name = ../refined-set-2016/3fv3/3fv3_pocket.pdb
REMARK  230 active torsions:
REMARK  status: ('A' for Active; 'I' for Inactive)
REMARK    1  A    between atoms: _1  and  _3
REMARK    2  A    between atoms: _3  and  _4
REMARK    3  A    between atoms: _7  and  _8
REMARK    4  A    between atoms: _13  and  _15
REMARK    5  A    between atoms: _15  and  _16
REMARK    6  A    between atoms: _15  and  _18
REMARK    7  A    between atoms: _18  and  _19
REMARK    8  A    between atoms: _21  and  _23
REMARK    9  A    between atoms: _23  and  _24
REMARK   10  A    between atoms: _23  and  _26
REMARK   11  A    between atoms: _26  and  _27
REMARK   12  A    between atoms: _32  and  _33
REMARK   13  A    between atoms: _35  and  _37
REMARK   14  A    between atoms: _37  and  _38
REMARK   15  A    between atoms: _37  and  _40
REMARK   16  A    between atoms: _40  and  _41
REMARK   17  A    between atoms: _44  and  _46
REMARK   18  A    between atoms: _46  and  _47
REMARK   19  A    between atoms: _46  and  _49
REMARK   20  A    between atoms: _49  and  _50
REMARK   21  A    between atoms: _53  and  _55
REMARK   22  A    between atoms: _55  and  _56
REMARK   23  A    between atoms: _55  and  _58
REMARK   24  A    between atoms: _58  and  _59
REMARK   25  A    between atoms: _62  and  _64
REMARK   26  A    between atoms: _64  and  _65
REMARK   27  A    between atoms: _64  and  _67
REMARK   28  A    between atoms: _67  and  _68
REMARK   29  A    between atoms: _71  and  _73
REMARK   30  A    between atoms: _73  and  _74
REMARK   31  A    between atoms: _76  and  _78
REMARK   32  A    between atoms: _78  and  _79
REMARK   33  A    between atoms: _78  and  _81
REMARK   34  A    between atoms: _81  and  _82
REMARK   35  A    between atoms: _84  and  _86
REMARK   36  A    between atoms: _86  and  _87
REMARK   37  A    between atoms: _86  and  _89
REMARK   38  A    between atoms: _89  and  _90
REMARK   39  A    between atoms: _92  and  _94
REMARK   40  A    between atoms: _94  and  _95
REMARK   41  A    between atoms: _94  and  _97
REMARK   42  A    between atoms: _97  and  _98
REMARK   43  A    between atoms: _101  and  _103
REMARK   44  A    between atoms: _103  and  _104
REMARK   45  A    between atoms: _103  and  _106
REMARK   46  A    between atoms: _106  and  _107
REMARK   47  A    between atoms: _117  and  _119
REMARK   48  A    between atoms: _119  and  _120
REMARK   49  A    between atoms: _119  and  _122
REMARK   50  A    between atoms: _122  and  _123
REMARK   51  A    between atoms: _126  and  _128
REMARK   52  A    between atoms: _128  and  _129
REMARK   53  A    between atoms: _128  and  _131
REMARK   54  A    between atoms: _131  and  _132
REMARK   55  A    between atoms: _132  and  _133
REMARK   56  A    between atoms: _133  and  _134
REMARK   57  A    between atoms: _143  and  _145
REMARK   58  A    between atoms: _145  and  _146
REMARK   59  A    between atoms: _145  and  _148
REMARK   60  A    between atoms: _148  and  _149
REMARK   61  A    between atoms: _154  and  _155
REMARK   62  A    between atoms: _157  and  _159
REMARK   63  A    between atoms: _159  and  _160
REMARK   64  A    between atoms: _162  and  _164
REMARK   65  A    between atoms: _164  and  _165
REMARK   66  A    between atoms: _164  and  _167
REMARK   67  A    between atoms: _167  and  _168
REMARK   68  A    between atoms: _171  and  _173
REMARK   69  A    between atoms: _173  and  _174
REMARK   70  A    between atoms: _176  and  _178
REMARK   71  A    between atoms: _178  and  _179
REMARK   72  A    between atoms: _178  and  _181
REMARK   73  A    between atoms: _181  and  _182
REMARK   74  A    between atoms: _184  and  _186
REMARK   75  A    between atoms: _186  and  _187
REMARK   76  A    between atoms: _186  and  _189
REMARK   77  A    between atoms: _189  and  _190
REMARK   78  A    between atoms: _193  and  _195
REMARK   79  A    between atoms: _195  and  _196
REMARK   80  A    between atoms: _195  and  _198
REMARK   81  A    between atoms: _198  and  _199
REMARK   82  A    between atoms: _201  and  _203
REMARK   83  A    between atoms: _203  and  _204
REMARK   84  A    between atoms: _203  and  _206
REMARK   85  A    between atoms: _209  and  _211
REMARK   86  A    between atoms: _211  and  _212
REMARK   87  A    between atoms: _211  and  _214
REMARK   88  A    between atoms: _214  and  _215
REMARK   89  A    between atoms: _218  and  _220
REMARK   90  A    between atoms: _220  and  _221
REMARK   91  A    between atoms: _220  and  _223
REMARK   92  A    between atoms: _223  and  _224
REMARK   93  A    between atoms: _224  and  _225
REMARK   94  A    between atoms: _230  and  _232
REMARK   95  A    between atoms: _232  and  _233
REMARK   96  A    between atoms: _235  and  _237
REMARK   97  A    between atoms: _237  and  _238
REMARK   98  A    between atoms: _237  and  _240
REMARK   99  A    between atoms: _240  and  _241
REMARK  100  A    between atoms: _244  and  _246
REMARK  101  A    between atoms: _246  and  _247
REMARK  102  A    between atoms: _246  and  _249
REMARK  103  A    between atoms: _249  and  _250
REMARK  104  A    between atoms: _253  and  _255
REMARK  105  A    between atoms: _255  and  _256
REMARK  106  A    between atoms: _255  and  _258
REMARK  107  A    between atoms: _258  and  _259
REMARK  108  A    between atoms: _262  and  _264
REMARK  109  A    between atoms: _264  and  _265
REMARK  110  A    between atoms: _264  and  _267
REMARK  111  A    between atoms: _267  and  _268
REMARK  112  A    between atoms: _273  and  _275
REMARK  113  A    between atoms: _275  and  _276
REMARK  114  A    between atoms: _275  and  _278
REMARK  115  A    between atoms: _278  and  _279
REMARK  116  A    between atoms: _279  and  _280
REMARK  117  A    between atoms: _283  and  _285
REMARK  118  A    between atoms: _285  and  _286
REMARK  119  A    between atoms: _289  and  _291
REMARK  120  A    between atoms: _291  and  _292
REMARK  121  A    between atoms: _291  and  _294
REMARK  122  A    between atoms: _294  and  _295
REMARK  123  A    between atoms: _295  and  _296
REMARK  124  A    between atoms: _301  and  _303
REMARK  125  A    between atoms: _303  and  _304
REMARK  126  A    between atoms: _307  and  _309
REMARK  127  A    between atoms: _309  and  _310
REMARK  128  A    between atoms: _309  and  _312
REMARK  129  A    between atoms: _312  and  _313
REMARK  130  A    between atoms: _316  and  _318
REMARK  131  A    between atoms: _318  and  _319
REMARK  132  A    between atoms: _318  and  _321
REMARK  133  A    between atoms: _321  and  _322
REMARK  134  A    between atoms: _325  and  _327
REMARK  135  A    between atoms: _327  and  _328
REMARK  136  A    between atoms: _327  and  _330
REMARK  137  A    between atoms: _330  and  _331
REMARK  138  A    between atoms: _334  and  _336
REMARK  139  A    between atoms: _336  and  _337
REMARK  140  A    between atoms: _336  and  _339
REMARK  141  A    between atoms: _339  and  _340
REMARK  142  A    between atoms: _343  and  _345
REMARK  143  A    between atoms: _345  and  _346
REMARK  144  A    between atoms: _345  and  _348
REMARK  145  A    between atoms: _348  and  _349
REMARK  146  A    between atoms: _351  and  _353
REMARK  147  A    between atoms: _353  and  _354
REMARK  148  A    between atoms: _356  and  _358
REMARK  149  A    between atoms: _358  and  _359
REMARK  150  A    between atoms: _358  and  _361
REMARK  151  A    between atoms: _361  and  _362
REMARK  152  A    between atoms: _365  and  _367
REMARK  153  A    between atoms: _367  and  _368
REMARK  154  A    between atoms: _367  and  _370
REMARK  155  A    between atoms: _370  and  _371
REMARK  156  A    between atoms: _374  and  _376
REMARK  157  A    between atoms: _376  and  _377
REMARK  158  A    between atoms: _376  and  _379
REMARK  159  A    between atoms: _379  and  _380
REMARK  160  A    between atoms: _383  and  _385
REMARK  161  A    between atoms: _385  and  _386
REMARK  162  A    between atoms: _385  and  _388
REMARK  163  A    between atoms: _388  and  _389
REMARK  164  A    between atoms: _392  and  _394
REMARK  165  A    between atoms: _394  and  _395
REMARK  166  A    between atoms: _394  and  _397
REMARK  167  A    between atoms: _397  and  _398
REMARK  168  A    between atoms: _403  and  _404
REMARK  169  A    between atoms: _406  and  _408
REMARK  170  A    between atoms: _408  and  _409
REMARK  171  A    between atoms: _408  and  _411
REMARK  172  A    between atoms: _411  and  _412
REMARK  173  A    between atoms: _412  and  _413
REMARK  174  A    between atoms: _418  and  _420
REMARK  175  A    between atoms: _420  and  _421
REMARK  176  A    between atoms: _420  and  _423
REMARK  177  A    between atoms: _423  and  _424
REMARK  178  A    between atoms: _427  and  _429
REMARK  179  A    between atoms: _429  and  _430
REMARK  180  A    between atoms: _429  and  _432
REMARK  181  A    between atoms: _432  and  _433
REMARK  182  A    between atoms: _438  and  _439
REMARK  183  A    between atoms: _441  and  _443
REMARK  184  A    between atoms: _443  and  _444
REMARK  185  A    between atoms: _443  and  _446
REMARK  186  A    between atoms: _446  and  _447
REMARK  187  A    between atoms: _447  and  _448
REMARK  188  A    between atoms: _453  and  _455
REMARK  189  A    between atoms: _455  and  _456
REMARK  190  A    between atoms: _455  and  _458
REMARK  191  A    between atoms: _458  and  _459
REMARK  192  A    between atoms: _464  and  _466
REMARK  193  A    between atoms: _466  and  _467
REMARK  194  A    between atoms: _466  and  _469
REMARK  195  A    between atoms: _469  and  _470
REMARK  196  A    between atoms: _473  and  _475
REMARK  197  A    between atoms: _475  and  _476
REMARK  198  A    between atoms: _475  and  _478
REMARK  199  A    between atoms: _478  and  _479
REMARK  200  A    between atoms: _489  and  _491
REMARK  201  A    between atoms: _491  and  _492
REMARK  202  A    between atoms: _491  and  _494
REMARK  203  A    between atoms: _494  and  _495
REMARK  204  A    between atoms: _495  and  _496
REMARK  205  A    between atoms: _501  and  _503
REMARK  206  A    between atoms: _503  and  _504
REMARK  207  A    between atoms: _503  and  _506
REMARK  208  A    between atoms: _506  and  _507
REMARK  209  A    between atoms: _509  and  _511
REMARK  210  A    between atoms: _511  and  _512
REMARK  211  A    between atoms: _511  and  _514
REMARK  212  A    between atoms: _514  and  _515
REMARK  213  A    between atoms: _518  and  _520
REMARK  214  A    between atoms: _520  and  _521
REMARK  215  A    between atoms: _520  and  _523
REMARK  216  A    between atoms: _523  and  _524
REMARK  217  A    between atoms: _527  and  _529
REMARK  218  A    between atoms: _529  and  _530
REMARK  219  A    between atoms: _529  and  _532
REMARK  220  A    between atoms: _532  and  _533
REMARK  221  A    between atoms: _536  and  _538
REMARK  222  A    between atoms: _538  and  _539
REMARK  223  A    between atoms: _538  and  _541
REMARK  224  A    between atoms: _541  and  _542
REMARK  225  A    between atoms: _545  and  _547
REMARK  226  A    between atoms: _547  and  _548
REMARK  227  A    between atoms: _550  and  _552
REMARK  228  A    between atoms: _552  and  _553
REMARK  229  A    between atoms: _552  and  _555
REMARK  230  A    between atoms: _555  and  _556
REMARK                            x       y       z     vdW  Elec       q    Type
REMARK                         _______ _______ _______ _____ _____    ______ ____
ROOT
ATOM      1  O   HOH     1      14.798  26.388  72.113  0.00  0.00    +0.000 OA
ENDROOT
TORSDOF 0
