REMARK  Name = ../refined-set-2016/1y3p/1y3p_pocket.pdb
REMARK  303 active torsions:
REMARK  status: ('A' for Active; 'I' for Inactive)
REMARK    1  A    between atoms: _1  and  _3
REMARK    2  A    between atoms: _3  and  _4
REMARK    3  A    between atoms: _3  and  _6
REMARK    4  A    between atoms: _6  and  _7
REMARK    5  A    between atoms: _12  and  _14
REMARK    6  A    between atoms: _14  and  _15
REMARK    7  A    between atoms: _14  and  _17
REMARK    8  A    between atoms: _17  and  _18
REMARK    9  A    between atoms: _24  and  _26
REMARK   10  A    between atoms: _26  and  _27
REMARK   11  A    between atoms: _26  and  _29
REMARK   12  A    between atoms: _29  and  _30
REMARK   13  A    between atoms: _30  and  _31
REMARK   14  A    between atoms: _31  and  _32
REMARK   15  A    between atoms: _41  and  _43
REMARK   16  A    between atoms: _43  and  _44
REMARK   17  A    between atoms: _43  and  _46
REMARK   18  A    between atoms: _46  and  _47
REMARK   19  A    between atoms: _50  and  _52
REMARK   20  A    between atoms: _52  and  _53
REMARK   21  A    between atoms: _52  and  _55
REMARK   22  A    between atoms: _55  and  _56
REMARK   23  A    between atoms: _56  and  _57
REMARK   24  A    between atoms: _57  and  _58
REMARK   25  A    between atoms: _58  and  _59
REMARK   26  A    between atoms: _63  and  _65
REMARK   27  A    between atoms: _65  and  _66
REMARK   28  A    between atoms: _65  and  _68
REMARK   29  A    between atoms: _68  and  _69
REMARK   30  A    between atoms: _79  and  _81
REMARK   31  A    between atoms: _81  and  _82
REMARK   32  A    between atoms: _81  and  _84
REMARK   33  A    between atoms: _84  and  _85
REMARK   34  A    between atoms: _88  and  _90
REMARK   35  A    between atoms: _90  and  _91
REMARK   36  A    between atoms: _90  and  _93
REMARK   37  A    between atoms: _93  and  _94
REMARK   38  A    between atoms: _99  and  _101
REMARK   39  A    between atoms: _101  and  _102
REMARK   40  A    between atoms: _101  and  _104
REMARK   41  A    between atoms: _104  and  _105
REMARK   42  A    between atoms: _107  and  _109
REMARK   43  A    between atoms: _109  and  _110
REMARK   44  A    between atoms: _109  and  _112
REMARK   45  A    between atoms: _112  and  _113
REMARK   46  A    between atoms: _113  and  _114
REMARK   47  A    between atoms: _119  and  _121
REMARK   48  A    between atoms: _121  and  _122
REMARK   49  A    between atoms: _121  and  _124
REMARK   50  A    between atoms: _124  and  _125
REMARK   51  A    between atoms: _125  and  _126
REMARK   52  A    between atoms: _129  and  _131
REMARK   53  A    between atoms: _131  and  _132
REMARK   54  A    between atoms: _134  and  _136
REMARK   55  A    between atoms: _136  and  _137
REMARK   56  A    between atoms: _136  and  _139
REMARK   57  A    between atoms: _139  and  _140
REMARK   58  A    between atoms: _143  and  _145
REMARK   59  A    between atoms: _145  and  _146
REMARK   60  A    between atoms: _145  and  _148
REMARK   61  A    between atoms: _148  and  _149
REMARK   62  A    between atoms: _154  and  _156
REMARK   63  A    between atoms: _156  and  _157
REMARK   64  A    between atoms: _156  and  _159
REMARK   65  A    between atoms: _159  and  _160
REMARK   66  A    between atoms: _163  and  _165
REMARK   67  A    between atoms: _165  and  _166
REMARK   68  A    between atoms: _165  and  _168
REMARK   69  A    between atoms: _168  and  _169
REMARK   70  A    between atoms: _169  and  _170
REMARK   71  A    between atoms: _170  and  _171
REMARK   72  A    between atoms: _171  and  _172
REMARK   73  A    between atoms: _176  and  _178
REMARK   74  A    between atoms: _178  and  _179
REMARK   75  A    between atoms: _178  and  _181
REMARK   76  A    between atoms: _181  and  _182
REMARK   77  A    between atoms: _187  and  _188
REMARK   78  A    between atoms: _191  and  _192
REMARK   79  A    between atoms: _197  and  _199
REMARK   80  A    between atoms: _199  and  _200
REMARK   81  A    between atoms: _199  and  _202
REMARK   82  A    between atoms: _202  and  _203
REMARK   83  A    between atoms: _206  and  _208
REMARK   84  A    between atoms: _208  and  _209
REMARK   85  A    between atoms: _211  and  _213
REMARK   86  A    between atoms: _213  and  _214
REMARK   87  A    between atoms: _213  and  _216
REMARK   88  A    between atoms: _219  and  _221
REMARK   89  A    between atoms: _221  and  _222
REMARK   90  A    between atoms: _221  and  _224
REMARK   91  A    between atoms: _224  and  _225
REMARK   92  A    between atoms: _227  and  _229
REMARK   93  A    between atoms: _229  and  _230
REMARK   94  A    between atoms: _229  and  _232
REMARK   95  A    between atoms: _232  and  _233
REMARK   96  A    between atoms: _233  and  _234
REMARK   97  A    between atoms: _234  and  _235
REMARK   98  A    between atoms: _244  and  _246
REMARK   99  A    between atoms: _246  and  _247
REMARK  100  A    between atoms: _246  and  _249
REMARK  101  A    between atoms: _249  and  _250
REMARK  102  A    between atoms: _255  and  _257
REMARK  103  A    between atoms: _257  and  _258
REMARK  104  A    between atoms: _257  and  _260
REMARK  105  A    between atoms: _260  and  _261
REMARK  106  A    between atoms: _261  and  _262
REMARK  107  A    between atoms: _262  and  _263
REMARK  108  A    between atoms: _272  and  _274
REMARK  109  A    between atoms: _274  and  _275
REMARK  110  A    between atoms: _274  and  _277
REMARK  111  A    between atoms: _277  and  _278
REMARK  112  A    between atoms: _282  and  _283
REMARK  113  A    between atoms: _288  and  _290
REMARK  114  A    between atoms: _290  and  _291
REMARK  115  A    between atoms: _290  and  _293
REMARK  116  A    between atoms: _293  and  _294
REMARK  117  A    between atoms: _294  and  _295
REMARK  118  A    between atoms: _298  and  _300
REMARK  119  A    between atoms: _300  and  _301
REMARK  120  A    between atoms: _300  and  _303
REMARK  121  A    between atoms: _303  and  _304
REMARK  122  A    between atoms: _304  and  _305
REMARK  123  A    between atoms: _308  and  _310
REMARK  124  A    between atoms: _310  and  _311
REMARK  125  A    between atoms: _310  and  _313
REMARK  126  A    between atoms: _313  and  _314
REMARK  127  A    between atoms: _319  and  _321
REMARK  128  A    between atoms: _321  and  _322
REMARK  129  A    between atoms: _321  and  _324
REMARK  130  A    between atoms: _324  and  _325
REMARK  131  A    between atoms: _328  and  _330
REMARK  132  A    between atoms: _330  and  _331
REMARK  133  A    between atoms: _330  and  _333
REMARK  134  A    between atoms: _333  and  _334
REMARK  135  A    between atoms: _344  and  _346
REMARK  136  A    between atoms: _346  and  _347
REMARK  137  A    between atoms: _346  and  _349
REMARK  138  A    between atoms: _349  and  _350
REMARK  139  A    between atoms: _350  and  _351
REMARK  140  A    between atoms: _353  and  _355
REMARK  141  A    between atoms: _355  and  _356
REMARK  142  A    between atoms: _355  and  _358
REMARK  143  A    between atoms: _358  and  _359
REMARK  144  A    between atoms: _359  and  _360
REMARK  145  A    between atoms: _360  and  _361
REMARK  146  A    between atoms: _361  and  _362
REMARK  147  A    between atoms: _366  and  _368
REMARK  148  A    between atoms: _368  and  _369
REMARK  149  A    between atoms: _372  and  _374
REMARK  150  A    between atoms: _374  and  _375
REMARK  151  A    between atoms: _374  and  _377
REMARK  152  A    between atoms: _377  and  _378
REMARK  153  A    between atoms: _378  and  _379
REMARK  154  A    between atoms: _379  and  _380
REMARK  155  A    between atoms: _389  and  _391
REMARK  156  A    between atoms: _391  and  _392
REMARK  157  A    between atoms: _391  and  _394
REMARK  158  A    between atoms: _394  and  _395
REMARK  159  A    between atoms: _398  and  _400
REMARK  160  A    between atoms: _400  and  _401
REMARK  161  A    between atoms: _400  and  _403
REMARK  162  A    between atoms: _403  and  _404
REMARK  163  A    between atoms: _414  and  _416
REMARK  164  A    between atoms: _416  and  _417
REMARK  165  A    between atoms: _416  and  _419
REMARK  166  A    between atoms: _419  and  _420
REMARK  167  A    between atoms: _426  and  _428
REMARK  168  A    between atoms: _428  and  _429
REMARK  169  A    between atoms: _432  and  _434
REMARK  170  A    between atoms: _434  and  _435
REMARK  171  A    between atoms: _434  and  _437
REMARK  172  A    between atoms: _437  and  _438
REMARK  173  A    between atoms: _440  and  _442
REMARK  174  A    between atoms: _442  and  _443
REMARK  175  A    between atoms: _442  and  _445
REMARK  176  A    between atoms: _445  and  _446
REMARK  177  A    between atoms: _449  and  _451
REMARK  178  A    between atoms: _451  and  _452
REMARK  179  A    between atoms: _455  and  _457
REMARK  180  A    between atoms: _457  and  _458
REMARK  181  A    between atoms: _457  and  _460
REMARK  182  A    between atoms: _460  and  _461
REMARK  183  A    between atoms: _464  and  _466
REMARK  184  A    between atoms: _466  and  _467
REMARK  185  A    between atoms: _466  and  _469
REMARK  186  A    between atoms: _469  and  _470
REMARK  187  A    between atoms: _473  and  _475
REMARK  188  A    between atoms: _475  and  _476
REMARK  189  A    between atoms: _475  and  _478
REMARK  190  A    between atoms: _478  and  _479
REMARK  191  A    between atoms: _479  and  _480
REMARK  192  A    between atoms: _480  and  _481
REMARK  193  A    between atoms: _490  and  _492
REMARK  194  A    between atoms: _492  and  _493
REMARK  195  A    between atoms: _492  and  _495
REMARK  196  A    between atoms: _495  and  _496
REMARK  197  A    between atoms: _496  and  _497
REMARK  198  A    between atoms: _502  and  _504
REMARK  199  A    between atoms: _504  and  _505
REMARK  200  A    between atoms: _504  and  _507
REMARK  201  A    between atoms: _507  and  _508
REMARK  202  A    between atoms: _508  and  _509
REMARK  203  A    between atoms: _509  and  _510
REMARK  204  A    between atoms: _520  and  _521
REMARK  205  A    between atoms: _526  and  _528
REMARK  206  A    between atoms: _528  and  _529
REMARK  207  A    between atoms: _528  and  _531
REMARK  208  A    between atoms: _531  and  _532
REMARK  209  A    between atoms: _535  and  _537
REMARK  210  A    between atoms: _537  and  _538
REMARK  211  A    between atoms: _537  and  _540
REMARK  212  A    between atoms: _540  and  _541
REMARK  213  A    between atoms: _547  and  _548
REMARK  214  A    between atoms: _553  and  _555
REMARK  215  A    between atoms: _555  and  _556
REMARK  216  A    between atoms: _555  and  _558
REMARK  217  A    between atoms: _561  and  _563
REMARK  218  A    between atoms: _563  and  _564
REMARK  219  A    between atoms: _563  and  _566
REMARK  220  A    between atoms: _566  and  _567
REMARK  221  A    between atoms: _572  and  _574
REMARK  222  A    between atoms: _574  and  _575
REMARK  223  A    between atoms: _574  and  _577
REMARK  224  A    between atoms: _577  and  _578
REMARK  225  A    between atoms: _583  and  _585
REMARK  226  A    between atoms: _585  and  _586
REMARK  227  A    between atoms: _585  and  _588
REMARK  228  A    between atoms: _588  and  _589
REMARK  229  A    between atoms: _589  and  _590
REMARK  230  A    between atoms: _592  and  _594
REMARK  231  A    between atoms: _594  and  _595
REMARK  232  A    between atoms: _594  and  _597
REMARK  233  A    between atoms: _597  and  _598
REMARK  234  A    between atoms: _603  and  _604
REMARK  235  A    between atoms: _606  and  _608
REMARK  236  A    between atoms: _608  and  _609
REMARK  237  A    between atoms: _608  and  _611
REMARK  238  A    between atoms: _611  and  _612
REMARK  239  A    between atoms: _612  and  _613
REMARK  240  A    between atoms: _618  and  _620
REMARK  241  A    between atoms: _620  and  _621
REMARK  242  A    between atoms: _620  and  _623
REMARK  243  A    between atoms: _623  and  _624
REMARK  244  A    between atoms: _628  and  _629
REMARK  245  A    between atoms: _634  and  _636
REMARK  246  A    between atoms: _636  and  _637
REMARK  247  A    between atoms: _636  and  _639
REMARK  248  A    between atoms: _639  and  _640
REMARK  249  A    between atoms: _646  and  _648
REMARK  250  A    between atoms: _648  and  _649
REMARK  251  A    between atoms: _648  and  _651
REMARK  252  A    between atoms: _651  and  _652
REMARK  253  A    between atoms: _652  and  _653
REMARK  254  A    between atoms: _658  and  _660
REMARK  255  A    between atoms: _660  and  _661
REMARK  256  A    between atoms: _660  and  _663
REMARK  257  A    between atoms: _663  and  _664
REMARK  258  A    between atoms: _667  and  _669
REMARK  259  A    between atoms: _669  and  _670
REMARK  260  A    between atoms: _669  and  _672
REMARK  261  A    between atoms: _672  and  _673
REMARK  262  A    between atoms: _678  and  _679
REMARK  263  A    between atoms: _681  and  _683
REMARK  264  A    between atoms: _683  and  _684
REMARK  265  A    between atoms: _683  and  _686
REMARK  266  A    between atoms: _686  and  _687
REMARK  267  A    between atoms: _692  and  _693
REMARK  268  A    between atoms: _695  and  _697
REMARK  269  A    between atoms: _697  and  _698
REMARK  270  A    between atoms: _697  and  _700
REMARK  271  A    between atoms: _700  and  _701
REMARK  272  A    between atoms: _701  and  _702
REMARK  273  A    between atoms: _705  and  _707
REMARK  274  A    between atoms: _707  and  _708
REMARK  275  A    between atoms: _707  and  _710
REMARK  276  A    between atoms: _710  and  _711
REMARK  277  A    between atoms: _711  and  _712
REMARK  278  A    between atoms: _712  and  _713
REMARK  279  A    between atoms: _722  and  _724
REMARK  280  A    between atoms: _724  and  _725
REMARK  281  A    between atoms: _724  and  _727
REMARK  282  A    between atoms: _727  and  _728
REMARK  283  A    between atoms: _738  and  _740
REMARK  284  A    between atoms: _740  and  _741
REMARK  285  A    between atoms: _740  and  _743
REMARK  286  A    between atoms: _743  and  _744
REMARK  287  A    between atoms: _747  and  _749
REMARK  288  A    between atoms: _749  and  _750
REMARK  289  A    between atoms: _753  and  _755
REMARK  290  A    between atoms: _755  and  _756
REMARK  291  A    between atoms: _755  and  _758
REMARK  292  A    between atoms: _758  and  _759
REMARK  293  A    between atoms: _762  and  _764
REMARK  294  A    between atoms: _764  and  _765
REMARK  295  A    between atoms: _764  and  _767
REMARK  296  A    between atoms: _767  and  _768
REMARK  297  A    between atoms: _768  and  _769
REMARK  298  A    between atoms: _769  and  _770
REMARK  299  A    between atoms: _770  and  _771
REMARK  300  A    between atoms: _775  and  _777
REMARK  301  A    between atoms: _777  and  _778
REMARK  302  A    between atoms: _777  and  _780
REMARK  303  A    between atoms: _780  and  _781
REMARK                            x       y       z     vdW  Elec       q    Type
REMARK                         _______ _______ _______ _____ _____    ______ ____
ROOT
ATOM      1  C   ARG A   3     -18.168   0.255 -12.082  0.00  0.00    +0.241 C 
ATOM      2  O   ARG A   3     -18.569   0.307 -10.920  0.00  0.00    -0.273 OA
ATOM      3  N   ASP A   4     -18.622   1.039 -13.055  0.00  0.00    -0.297 N 
ATOM      4  H   ASP A   4     -18.220   0.920 -14.007  0.00  0.00    +0.150 HD
ENDROOT
BRANCH   3   5
ATOM      5  CA  ASP A   4     -19.652   2.058 -12.867  0.00  0.00    +0.160 C 
BRANCH   5   6
ATOM      6  C   ASP A   4     -19.381   3.135 -11.824  0.00  0.00    +0.241 C 
ATOM      7  O   ASP A   4     -20.322   3.770 -11.344  0.00  0.00    -0.273 OA
ATOM      8  N   LYS A   5     -18.123   3.359 -11.465  0.00  0.00    -0.297 N 
ATOM      9  H   LYS A   5     -17.347   2.807 -11.883  0.00  0.00    +0.150 HD
BRANCH   8  10
ATOM     10  CA  LYS A   5     -17.848   4.392 -10.474  0.00  0.00    +0.149 C 
BRANCH  10  11
ATOM     11  C   LYS A   5     -16.415   4.891 -10.402  0.00  0.00    +0.241 C 
ATOM     12  O   LYS A   5     -16.091   5.715  -9.548  0.00  0.00    -0.273 OA
ATOM     13  N   TRP A   6     -15.556   4.412 -11.295  0.00  0.00    -0.298 N 
ATOM     14  H   TRP A   6     -15.879   3.726 -12.007  0.00  0.00    +0.150 HD
BRANCH  13  15
ATOM     15  CA  TRP A   6     -14.163   4.843 -11.281  0.00  0.00    +0.141 C 
BRANCH  15  16
ATOM     16  C   TRP A   6     -13.632   5.259 -12.644  0.00  0.00    +0.227 C 
ATOM     17  O   TRP A   6     -14.099   4.798 -13.686  0.00  0.00    -0.286 OA
ENDBRANCH  15  16
BRANCH  15  18
ATOM     18  CB  TRP A   6     -13.268   3.736 -10.719  0.00  0.00    +0.056 C 
BRANCH  18  19
ATOM     19  CG  TRP A   6     -13.271   3.628  -9.225  0.00  0.00    -0.002 A 
ATOM     20  CD1 TRP A   6     -12.776   4.539  -8.333  0.00  0.00    +0.068 A 
ATOM     21  NE1 TRP A   6     -12.939   4.080  -7.046  0.00  0.00    -0.352 N 
ATOM     22  HE1 TRP A   6     -12.646   4.581  -6.183  0.00  0.00    +0.166 HD
ATOM     23  CE2 TRP A   6     -13.551   2.855  -7.087  0.00  0.00    +0.056 A 
ATOM     24  CZ2 TRP A   6     -13.926   2.000  -6.046  0.00  0.00    +0.017 A 
ATOM     25  CH2 TRP A   6     -14.531   0.815  -6.384  0.00  0.00    +0.001 A 
ATOM     26  CZ3 TRP A   6     -14.768   0.469  -7.726  0.00  0.00    +0.000 A 
ATOM     27  CE3 TRP A   6     -14.395   1.323  -8.765  0.00  0.00    +0.001 A 
ATOM     28  CD2 TRP A   6     -13.776   2.538  -8.447  0.00  0.00    +0.013 A 
ENDBRANCH  18  19
ENDBRANCH  15  18
ENDBRANCH  13  15
ENDBRANCH  10  11
BRANCH  10  29
ATOM     29  CB  LYS A   5     -18.283   3.915  -9.088  0.00  0.00    +0.029 C 
BRANCH  29  30
ATOM     30  CG  LYS A   5     -17.659   2.602  -8.651  0.00  0.00    +0.000 C 
BRANCH  30  31
ATOM     31  CD  LYS A   5     -18.066   2.246  -7.226  0.00  0.00    -0.024 C 
BRANCH  31  32
ATOM     32  CE  LYS A   5     -19.579   2.200  -7.081  0.00  0.00    -0.086 C 
BRANCH  32  33
ATOM     33  NZ  LYS A   5     -20.201   1.276  -8.073  0.00  0.00    +0.380 N 
ATOM     34  HZ1 LYS A   5     -19.829   0.315  -7.931  0.00  0.00    -0.089 HD
ATOM     35  HZ2 LYS A   5     -21.233   1.272  -7.942  0.00  0.00    -0.089 HD
ATOM     36  HZ3 LYS A   5     -19.974   1.598  -9.035  0.00  0.00    -0.089 HD
ENDBRANCH  32  33
ENDBRANCH  31  32
ENDBRANCH  30  31
ENDBRANCH  29  30
ENDBRANCH  10  29
ENDBRANCH   8  10
ENDBRANCH   5   6
BRANCH   5  37
ATOM     37  CB  ASP A   4     -21.004   1.414 -12.538  0.00  0.00    +0.143 C 
BRANCH  37  38
ATOM     38  CG  ASP A   4     -21.547   0.570 -13.669  0.00  0.00    +0.367 C 
ATOM     39  OD2 ASP A   4     -22.227  -0.433 -13.380  0.00  0.00    -0.246 OA
ATOM     40  OD1 ASP A   4     -21.318   0.917 -14.844  0.00  0.00    -0.246 OA
ENDBRANCH  37  38
ENDBRANCH   5  37
ENDBRANCH   3   5
BRANCH   1  41
ATOM     41  CA  ARG A   3     -17.106  -0.755 -12.506  0.00  0.00    +0.149 C 
BRANCH  41  44
ATOM     42  C   PHE A   2     -15.656   0.876 -13.632  0.00  0.00    +0.241 C 
ATOM     43  O   PHE A   2     -15.736   1.711 -12.728  0.00  0.00    -0.273 OA
ATOM     44  N   ARG A   3     -16.276  -0.300 -13.613  0.00  0.00    -0.297 N 
ATOM     45  H   ARG A   3     -16.162  -0.929 -14.433  0.00  0.00    +0.150 HD
BRANCH  42  46
ATOM     46  CA  PHE A   2     -14.833   1.129 -14.884  0.00  0.00    +0.153 C 
BRANCH  46  48
ATOM     47  C   HIS A   1     -14.697   2.889 -16.518  0.00  0.00    +0.239 C 
ATOM     48  N   PHE A   2     -14.570   2.512 -15.249  0.00  0.00    -0.297 N 
ATOM     49  H   PHE A   2     -14.285   3.201 -14.524  0.00  0.00    +0.150 HD
ATOM     50  O   HIS A   1     -15.053   2.113 -17.405  0.00  0.00    -0.274 OA
BRANCH  47  51
ATOM     51  CA  HIS A   1     -14.358   4.334 -16.859  0.00  0.00    +0.151 C 
BRANCH  51  52
ATOM     52  N   HIS A   1     -13.288   4.199 -17.833  0.00  0.00    -0.238 NA
ATOM     53  H   HIS A   1     -13.496   3.765 -18.755  0.00  0.00    +0.142 HD
ENDBRANCH  51  52
BRANCH  51  54
ATOM     54  CB  HIS A   1     -15.551   5.044 -17.495  0.00  0.00    +0.074 C 
BRANCH  54  55
ATOM     55  CG  HIS A   1     -16.616   5.421 -16.518  0.00  0.00    +0.082 A 
ATOM     56  ND1 HIS A   1     -17.345   4.486 -15.817  0.00  0.00    -0.227 NA
ATOM     57  CE1 HIS A   1     -18.196   5.104 -15.019  0.00  0.00    +0.199 A 
ATOM     58  NE2 HIS A   1     -18.045   6.407 -15.178  0.00  0.00    -0.221 NA
ATOM     59  CD2 HIS A   1     -17.063   6.632 -16.111  0.00  0.00    +0.115 A 
ENDBRANCH  54  55
ENDBRANCH  51  54
ENDBRANCH  47  51
ENDBRANCH  46  48
BRANCH  46  60
ATOM     60  CB  PHE A   2     -13.505   0.370 -14.785  0.00  0.00    +0.055 C 
BRANCH  60  61
ATOM     61  CG  PHE A   2     -12.570   0.895 -13.730  0.00  0.00    -0.020 A 
ATOM     62  CD2 PHE A   2     -12.480   0.271 -12.490  0.00  0.00    -0.004 A 
ATOM     63  CE2 PHE A   2     -11.584   0.724 -11.521  0.00  0.00    -0.000 A 
ATOM     64  CZ  PHE A   2     -10.766   1.822 -11.792  0.00  0.00    -0.000 A 
ATOM     65  CE1 PHE A   2     -10.851   2.460 -13.028  0.00  0.00    -0.000 A 
ATOM     66  CD1 PHE A   2     -11.751   1.994 -13.989  0.00  0.00    -0.004 A 
ENDBRANCH  60  61
ENDBRANCH  46  60
ENDBRANCH  42  46
ENDBRANCH  41  44
BRANCH  41  67
ATOM     67  CB  ARG A   3     -16.197  -1.153 -11.339  0.00  0.00    +0.033 C 
BRANCH  67  68
ATOM     68  CG  ARG A   3     -15.316  -2.333 -11.728  0.00  0.00    +0.045 C 
BRANCH  68  69
ATOM     69  CD  ARG A   3     -14.201  -2.648 -10.745  0.00  0.00    +0.174 C 
BRANCH  69  70
ATOM     70  NE  ARG A   3     -13.444  -3.808 -11.215  0.00  0.00    -0.265 N 
ATOM     71  CZ  ARG A   3     -12.258  -4.182 -10.745  0.00  0.00    +0.342 C 
ATOM     72  NH2 ARG A   3     -11.673  -3.484  -9.779  0.00  0.00    -0.292 N 
ATOM     73 HH21 ARG A   3     -12.143  -2.642  -9.388  0.00  0.00    +0.255 HD
ATOM     74 HH22 ARG A   3     -10.745  -3.779  -9.413  0.00  0.00    +0.255 HD
ATOM     75  NH1 ARG A   3     -11.654  -5.253 -11.246  0.00  0.00    -0.292 N 
ATOM     76 HH11 ARG A   3     -10.726  -5.546 -10.879  0.00  0.00    +0.255 HD
ATOM     77 HH12 ARG A   3     -12.109  -5.799 -12.006  0.00  0.00    +0.255 HD
ATOM     78  HE  ARG A   3     -13.865  -4.383 -11.973  0.00  0.00    +0.259 HD
ENDBRANCH  69  70
ENDBRANCH  68  69
ENDBRANCH  67  68
ENDBRANCH  41  67
ENDBRANCH   1  41
TORSDOF 29
REMARK  Name = ../refined-set-2016/1y3p/1y3p_pocket.pdb
REMARK  303 active torsions:
REMARK  status: ('A' for Active; 'I' for Inactive)
REMARK    1  A    between atoms: _1  and  _3
REMARK    2  A    between atoms: _3  and  _4
REMARK    3  A    between atoms: _3  and  _6
REMARK    4  A    between atoms: _6  and  _7
REMARK    5  A    between atoms: _12  and  _14
REMARK    6  A    between atoms: _14  and  _15
REMARK    7  A    between atoms: _14  and  _17
REMARK    8  A    between atoms: _17  and  _18
REMARK    9  A    between atoms: _24  and  _26
REMARK   10  A    between atoms: _26  and  _27
REMARK   11  A    between atoms: _26  and  _29
REMARK   12  A    between atoms: _29  and  _30
REMARK   13  A    between atoms: _30  and  _31
REMARK   14  A    between atoms: _31  and  _32
REMARK   15  A    between atoms: _41  and  _43
REMARK   16  A    between atoms: _43  and  _44
REMARK   17  A    between atoms: _43  and  _46
REMARK   18  A    between atoms: _46  and  _47
REMARK   19  A    between atoms: _50  and  _52
REMARK   20  A    between atoms: _52  and  _53
REMARK   21  A    between atoms: _52  and  _55
REMARK   22  A    between atoms: _55  and  _56
REMARK   23  A    between atoms: _56  and  _57
REMARK   24  A    between atoms: _57  and  _58
REMARK   25  A    between atoms: _58  and  _59
REMARK   26  A    between atoms: _63  and  _65
REMARK   27  A    between atoms: _65  and  _66
REMARK   28  A    between atoms: _65  and  _68
REMARK   29  A    between atoms: _68  and  _69
REMARK   30  A    between atoms: _79  and  _81
REMARK   31  A    between atoms: _81  and  _82
REMARK   32  A    between atoms: _81  and  _84
REMARK   33  A    between atoms: _84  and  _85
REMARK   34  A    between atoms: _88  and  _90
REMARK   35  A    between atoms: _90  and  _91
REMARK   36  A    between atoms: _90  and  _93
REMARK   37  A    between atoms: _93  and  _94
REMARK   38  A    between atoms: _99  and  _101
REMARK   39  A    between atoms: _101  and  _102
REMARK   40  A    between atoms: _101  and  _104
REMARK   41  A    between atoms: _104  and  _105
REMARK   42  A    between atoms: _107  and  _109
REMARK   43  A    between atoms: _109  and  _110
REMARK   44  A    between atoms: _109  and  _112
REMARK   45  A    between atoms: _112  and  _113
REMARK   46  A    between atoms: _113  and  _114
REMARK   47  A    between atoms: _119  and  _121
REMARK   48  A    between atoms: _121  and  _122
REMARK   49  A    between atoms: _121  and  _124
REMARK   50  A    between atoms: _124  and  _125
REMARK   51  A    between atoms: _125  and  _126
REMARK   52  A    between atoms: _129  and  _131
REMARK   53  A    between atoms: _131  and  _132
REMARK   54  A    between atoms: _134  and  _136
REMARK   55  A    between atoms: _136  and  _137
REMARK   56  A    between atoms: _136  and  _139
REMARK   57  A    between atoms: _139  and  _140
REMARK   58  A    between atoms: _143  and  _145
REMARK   59  A    between atoms: _145  and  _146
REMARK   60  A    between atoms: _145  and  _148
REMARK   61  A    between atoms: _148  and  _149
REMARK   62  A    between atoms: _154  and  _156
REMARK   63  A    between atoms: _156  and  _157
REMARK   64  A    between atoms: _156  and  _159
REMARK   65  A    between atoms: _159  and  _160
REMARK   66  A    between atoms: _163  and  _165
REMARK   67  A    between atoms: _165  and  _166
REMARK   68  A    between atoms: _165  and  _168
REMARK   69  A    between atoms: _168  and  _169
REMARK   70  A    between atoms: _169  and  _170
REMARK   71  A    between atoms: _170  and  _171
REMARK   72  A    between atoms: _171  and  _172
REMARK   73  A    between atoms: _176  and  _178
REMARK   74  A    between atoms: _178  and  _179
REMARK   75  A    between atoms: _178  and  _181
REMARK   76  A    between atoms: _181  and  _182
REMARK   77  A    between atoms: _187  and  _188
REMARK   78  A    between atoms: _191  and  _192
REMARK   79  A    between atoms: _197  and  _199
REMARK   80  A    between atoms: _199  and  _200
REMARK   81  A    between atoms: _199  and  _202
REMARK   82  A    between atoms: _202  and  _203
REMARK   83  A    between atoms: _206  and  _208
REMARK   84  A    between atoms: _208  and  _209
REMARK   85  A    between atoms: _211  and  _213
REMARK   86  A    between atoms: _213  and  _214
REMARK   87  A    between atoms: _213  and  _216
REMARK   88  A    between atoms: _219  and  _221
REMARK   89  A    between atoms: _221  and  _222
REMARK   90  A    between atoms: _221  and  _224
REMARK   91  A    between atoms: _224  and  _225
REMARK   92  A    between atoms: _227  and  _229
REMARK   93  A    between atoms: _229  and  _230
REMARK   94  A    between atoms: _229  and  _232
REMARK   95  A    between atoms: _232  and  _233
REMARK   96  A    between atoms: _233  and  _234
REMARK   97  A    between atoms: _234  and  _235
REMARK   98  A    between atoms: _244  and  _246
REMARK   99  A    between atoms: _246  and  _247
REMARK  100  A    between atoms: _246  and  _249
REMARK  101  A    between atoms: _249  and  _250
REMARK  102  A    between atoms: _255  and  _257
REMARK  103  A    between atoms: _257  and  _258
REMARK  104  A    between atoms: _257  and  _260
REMARK  105  A    between atoms: _260  and  _261
REMARK  106  A    between atoms: _261  and  _262
REMARK  107  A    between atoms: _262  and  _263
REMARK  108  A    between atoms: _272  and  _274
REMARK  109  A    between atoms: _274  and  _275
REMARK  110  A    between atoms: _274  and  _277
REMARK  111  A    between atoms: _277  and  _278
REMARK  112  A    between atoms: _282  and  _283
REMARK  113  A    between atoms: _288  and  _290
REMARK  114  A    between atoms: _290  and  _291
REMARK  115  A    between atoms: _290  and  _293
REMARK  116  A    between atoms: _293  and  _294
REMARK  117  A    between atoms: _294  and  _295
REMARK  118  A    between atoms: _298  and  _300
REMARK  119  A    between atoms: _300  and  _301
REMARK  120  A    between atoms: _300  and  _303
REMARK  121  A    between atoms: _303  and  _304
REMARK  122  A    between atoms: _304  and  _305
REMARK  123  A    between atoms: _308  and  _310
REMARK  124  A    between atoms: _310  and  _311
REMARK  125  A    between atoms: _310  and  _313
REMARK  126  A    between atoms: _313  and  _314
REMARK  127  A    between atoms: _319  and  _321
REMARK  128  A    between atoms: _321  and  _322
REMARK  129  A    between atoms: _321  and  _324
REMARK  130  A    between atoms: _324  and  _325
REMARK  131  A    between atoms: _328  and  _330
REMARK  132  A    between atoms: _330  and  _331
REMARK  133  A    between atoms: _330  and  _333
REMARK  134  A    between atoms: _333  and  _334
REMARK  135  A    between atoms: _344  and  _346
REMARK  136  A    between atoms: _346  and  _347
REMARK  137  A    between atoms: _346  and  _349
REMARK  138  A    between atoms: _349  and  _350
REMARK  139  A    between atoms: _350  and  _351
REMARK  140  A    between atoms: _353  and  _355
REMARK  141  A    between atoms: _355  and  _356
REMARK  142  A    between atoms: _355  and  _358
REMARK  143  A    between atoms: _358  and  _359
REMARK  144  A    between atoms: _359  and  _360
REMARK  145  A    between atoms: _360  and  _361
REMARK  146  A    between atoms: _361  and  _362
REMARK  147  A    between atoms: _366  and  _368
REMARK  148  A    between atoms: _368  and  _369
REMARK  149  A    between atoms: _372  and  _374
REMARK  150  A    between atoms: _374  and  _375
REMARK  151  A    between atoms: _374  and  _377
REMARK  152  A    between atoms: _377  and  _378
REMARK  153  A    between atoms: _378  and  _379
REMARK  154  A    between atoms: _379  and  _380
REMARK  155  A    between atoms: _389  and  _391
REMARK  156  A    between atoms: _391  and  _392
REMARK  157  A    between atoms: _391  and  _394
REMARK  158  A    between atoms: _394  and  _395
REMARK  159  A    between atoms: _398  and  _400
REMARK  160  A    between atoms: _400  and  _401
REMARK  161  A    between atoms: _400  and  _403
REMARK  162  A    between atoms: _403  and  _404
REMARK  163  A    between atoms: _414  and  _416
REMARK  164  A    between atoms: _416  and  _417
REMARK  165  A    between atoms: _416  and  _419
REMARK  166  A    between atoms: _419  and  _420
REMARK  167  A    between atoms: _426  and  _428
REMARK  168  A    between atoms: _428  and  _429
REMARK  169  A    between atoms: _432  and  _434
REMARK  170  A    between atoms: _434  and  _435
REMARK  171  A    between atoms: _434  and  _437
REMARK  172  A    between atoms: _437  and  _438
REMARK  173  A    between atoms: _440  and  _442
REMARK  174  A    between atoms: _442  and  _443
REMARK  175  A    between atoms: _442  and  _445
REMARK  176  A    between atoms: _445  and  _446
REMARK  177  A    between atoms: _449  and  _451
REMARK  178  A    between atoms: _451  and  _452
REMARK  179  A    between atoms: _455  and  _457
REMARK  180  A    between atoms: _457  and  _458
REMARK  181  A    between atoms: _457  and  _460
REMARK  182  A    between atoms: _460  and  _461
REMARK  183  A    between atoms: _464  and  _466
REMARK  184  A    between atoms: _466  and  _467
REMARK  185  A    between atoms: _466  and  _469
REMARK  186  A    between atoms: _469  and  _470
REMARK  187  A    between atoms: _473  and  _475
REMARK  188  A    between atoms: _475  and  _476
REMARK  189  A    between atoms: _475  and  _478
REMARK  190  A    between atoms: _478  and  _479
REMARK  191  A    between atoms: _479  and  _480
REMARK  192  A    between atoms: _480  and  _481
REMARK  193  A    between atoms: _490  and  _492
REMARK  194  A    between atoms: _492  and  _493
REMARK  195  A    between atoms: _492  and  _495
REMARK  196  A    between atoms: _495  and  _496
REMARK  197  A    between atoms: _496  and  _497
REMARK  198  A    between atoms: _502  and  _504
REMARK  199  A    between atoms: _504  and  _505
REMARK  200  A    between atoms: _504  and  _507
REMARK  201  A    between atoms: _507  and  _508
REMARK  202  A    between atoms: _508  and  _509
REMARK  203  A    between atoms: _509  and  _510
REMARK  204  A    between atoms: _520  and  _521
REMARK  205  A    between atoms: _526  and  _528
REMARK  206  A    between atoms: _528  and  _529
REMARK  207  A    between atoms: _528  and  _531
REMARK  208  A    between atoms: _531  and  _532
REMARK  209  A    between atoms: _535  and  _537
REMARK  210  A    between atoms: _537  and  _538
REMARK  211  A    between atoms: _537  and  _540
REMARK  212  A    between atoms: _540  and  _541
REMARK  213  A    between atoms: _547  and  _548
REMARK  214  A    between atoms: _553  and  _555
REMARK  215  A    between atoms: _555  and  _556
REMARK  216  A    between atoms: _555  and  _558
REMARK  217  A    between atoms: _561  and  _563
REMARK  218  A    between atoms: _563  and  _564
REMARK  219  A    between atoms: _563  and  _566
REMARK  220  A    between atoms: _566  and  _567
REMARK  221  A    between atoms: _572  and  _574
REMARK  222  A    between atoms: _574  and  _575
REMARK  223  A    between atoms: _574  and  _577
REMARK  224  A    between atoms: _577  and  _578
REMARK  225  A    between atoms: _583  and  _585
REMARK  226  A    between atoms: _585  and  _586
REMARK  227  A    between atoms: _585  and  _588
REMARK  228  A    between atoms: _588  and  _589
REMARK  229  A    between atoms: _589  and  _590
REMARK  230  A    between atoms: _592  and  _594
REMARK  231  A    between atoms: _594  and  _595
REMARK  232  A    between atoms: _594  and  _597
REMARK  233  A    between atoms: _597  and  _598
REMARK  234  A    between atoms: _603  and  _604
REMARK  235  A    between atoms: _606  and  _608
REMARK  236  A    between atoms: _608  and  _609
REMARK  237  A    between atoms: _608  and  _611
REMARK  238  A    between atoms: _611  and  _612
REMARK  239  A    between atoms: _612  and  _613
REMARK  240  A    between atoms: _618  and  _620
REMARK  241  A    between atoms: _620  and  _621
REMARK  242  A    between atoms: _620  and  _623
REMARK  243  A    between atoms: _623  and  _624
REMARK  244  A    between atoms: _628  and  _629
REMARK  245  A    between atoms: _634  and  _636
REMARK  246  A    between atoms: _636  and  _637
REMARK  247  A    between atoms: _636  and  _639
REMARK  248  A    between atoms: _639  and  _640
REMARK  249  A    between atoms: _646  and  _648
REMARK  250  A    between atoms: _648  and  _649
REMARK  251  A    between atoms: _648  and  _651
REMARK  252  A    between atoms: _651  and  _652
REMARK  253  A    between atoms: _652  and  _653
REMARK  254  A    between atoms: _658  and  _660
REMARK  255  A    between atoms: _660  and  _661
REMARK  256  A    between atoms: _660  and  _663
REMARK  257  A    between atoms: _663  and  _664
REMARK  258  A    between atoms: _667  and  _669
REMARK  259  A    between atoms: _669  and  _670
REMARK  260  A    between atoms: _669  and  _672
REMARK  261  A    between atoms: _672  and  _673
REMARK  262  A    between atoms: _678  and  _679
REMARK  263  A    between atoms: _681  and  _683
REMARK  264  A    between atoms: _683  and  _684
REMARK  265  A    between atoms: _683  and  _686
REMARK  266  A    between atoms: _686  and  _687
REMARK  267  A    between atoms: _692  and  _693
REMARK  268  A    between atoms: _695  and  _697
REMARK  269  A    between atoms: _697  and  _698
REMARK  270  A    between atoms: _697  and  _700
REMARK  271  A    between atoms: _700  and  _701
REMARK  272  A    between atoms: _701  and  _702
REMARK  273  A    between atoms: _705  and  _707
REMARK  274  A    between atoms: _707  and  _708
REMARK  275  A    between atoms: _707  and  _710
REMARK  276  A    between atoms: _710  and  _711
REMARK  277  A    between atoms: _711  and  _712
REMARK  278  A    between atoms: _712  and  _713
REMARK  279  A    between atoms: _722  and  _724
REMARK  280  A    between atoms: _724  and  _725
REMARK  281  A    between atoms: _724  and  _727
REMARK  282  A    between atoms: _727  and  _728
REMARK  283  A    between atoms: _738  and  _740
REMARK  284  A    between atoms: _740  and  _741
REMARK  285  A    between atoms: _740  and  _743
REMARK  286  A    between atoms: _743  and  _744
REMARK  287  A    between atoms: _747  and  _749
REMARK  288  A    between atoms: _749  and  _750
REMARK  289  A    between atoms: _753  and  _755
REMARK  290  A    between atoms: _755  and  _756
REMARK  291  A    between atoms: _755  and  _758
REMARK  292  A    between atoms: _758  and  _759
REMARK  293  A    between atoms: _762  and  _764
REMARK  294  A    between atoms: _764  and  _765
REMARK  295  A    between atoms: _764  and  _767
REMARK  296  A    between atoms: _767  and  _768
REMARK  297  A    between atoms: _768  and  _769
REMARK  298  A    between atoms: _769  and  _770
REMARK  299  A    between atoms: _770  and  _771
REMARK  300  A    between atoms: _775  and  _777
REMARK  301  A    between atoms: _777  and  _778
REMARK  302  A    between atoms: _777  and  _780
REMARK  303  A    between atoms: _780  and  _781
REMARK                            x       y       z     vdW  Elec       q    Type
REMARK                         _______ _______ _______ _____ _____    ______ ____
ROOT
ATOM      1  CA  SER A   3     -19.062   2.469 -17.784  0.00  0.00    +0.178 C 
ENDROOT
BRANCH   1   2
ATOM      2  C   SER A   3     -19.287   2.098 -19.253  0.00  0.00    +0.243 C 
ATOM      3  N   GLN A   4     -20.158   1.128 -19.502  0.00  0.00    -0.297 N 
ATOM      4  H   GLN A   4     -20.650   0.664 -18.712  0.00  0.00    +0.150 HD
ATOM      5  O   SER A   3     -18.682   2.688 -20.149  0.00  0.00    -0.273 OA
BRANCH   3   6
ATOM      6  CA  GLN A   4     -20.434   0.705 -20.870  0.00  0.00    +0.149 C 
BRANCH   6   7
ATOM      7  C   GLN A   4     -21.004   1.854 -21.698  0.00  0.00    +0.241 C 
ATOM      8  N   GLU A   5     -21.941   2.595 -21.117  0.00  0.00    -0.298 N 
ATOM      9  H   GLU A   5     -22.251   2.360 -20.152  0.00  0.00    +0.150 HD
ATOM     10  O   GLN A   4     -20.601   2.067 -22.840  0.00  0.00    -0.273 OA
BRANCH   8  11
ATOM     11  CA  GLU A   5     -22.545   3.732 -21.805  0.00  0.00    +0.137 C 
BRANCH  11  12
ATOM     12  C   GLU A   5     -21.468   4.735 -22.191  0.00  0.00    +0.227 C 
ATOM     13  O   GLU A   5     -21.489   5.289 -23.288  0.00  0.00    -0.286 OA
ENDBRANCH  11  12
BRANCH  11  14
ATOM     14  CB  GLU A   5     -23.573   4.409 -20.900  0.00  0.00    +0.039 C 
BRANCH  14  15
ATOM     15  CG  GLU A   5     -24.998   3.962 -21.147  0.00  0.00    +0.116 C 
BRANCH  15  16
ATOM     16  CD  GLU A   5     -25.963   4.505 -20.112  0.00  0.00    +0.365 C 
ATOM     17  OE2 GLU A   5     -26.816   3.726 -19.628  0.00  0.00    -0.246 OA
ATOM     18  OE1 GLU A   5     -25.871   5.712 -19.789  0.00  0.00    -0.246 OA
ENDBRANCH  15  16
ENDBRANCH  14  15
ENDBRANCH  11  14
ENDBRANCH   8  11
ENDBRANCH   6   7
BRANCH   6  19
ATOM     19  CB  GLN A   4     -21.400  -0.480 -20.870  0.00  0.00    +0.039 C 
BRANCH  19  20
ATOM     20  CG  GLN A   4     -20.804  -1.748 -20.284  0.00  0.00    +0.087 C 
BRANCH  20  21
ATOM     21  CD  GLN A   4     -19.484  -2.113 -20.935  0.00  0.00    +0.219 C 
ATOM     22  NE2 GLN A   4     -18.452  -2.307 -20.118  0.00  0.00    -0.329 N 
ATOM     23 HE21 GLN A   4     -18.576  -2.206 -19.090  0.00  0.00    +0.145 HD
ATOM     24 HE22 GLN A   4     -17.521  -2.560 -20.507  0.00  0.00    +0.145 HD
ATOM     25  OE1 GLN A   4     -19.392  -2.220 -22.160  0.00  0.00    -0.275 OA
ENDBRANCH  20  21
ENDBRANCH  19  20
ENDBRANCH   6  19
ENDBRANCH   3   6
ENDBRANCH   1   2
BRANCH   1  27
ATOM     26  C   ASN A   2     -21.282   3.397 -17.384  0.00  0.00    +0.241 C 
ATOM     27  N   SER A   3     -20.302   2.573 -17.025  0.00  0.00    -0.295 N 
ATOM     28  H   SER A   3     -20.424   1.984 -16.176  0.00  0.00    +0.150 HD
ATOM     29  O   ASN A   2     -21.224   4.113 -18.386  0.00  0.00    -0.273 OA
BRANCH  26  30
ATOM     30  CA  ASN A   2     -22.512   3.402 -16.477  0.00  0.00    +0.158 C 
BRANCH  30  33
ATOM     31  C   THR A   1     -22.794   4.533 -14.337  0.00  0.00    +0.241 C 
ATOM     32  O   THR A   1     -23.038   3.472 -13.760  0.00  0.00    -0.274 OA
ATOM     33  N   ASN A   2     -22.536   4.600 -15.640  0.00  0.00    -0.297 N 
ATOM     34  H   ASN A   2     -22.347   5.526 -16.073  0.00  0.00    +0.150 HD
BRANCH  31  35
ATOM     35  CA  THR A   1     -22.789   5.851 -13.563  0.00  0.00    +0.172 C 
BRANCH  35  36
ATOM     36  N   THR A   1     -22.353   6.982 -14.368  0.00  0.00    -0.236 NA
ATOM     37  H   THR A   1     -22.942   7.298 -15.165  0.00  0.00    +0.142 HD
ENDBRANCH  35  36
BRANCH  35  38
ATOM     38  CB  THR A   1     -24.205   6.104 -13.005  0.00  0.00    +0.135 C 
ATOM     39  CG2 THR A   1     -25.237   6.019 -14.122  0.00  0.00    +0.034 C 
BRANCH  38  40
ATOM     40  OG1 THR A   1     -24.511   5.123 -12.009  0.00  0.00    -0.383 OA
ATOM     41  HG1 THR A   1     -24.473   4.220 -12.414  0.00  0.00    +0.210 HD
ENDBRANCH  38  40
ENDBRANCH  35  38
ENDBRANCH  31  35
ENDBRANCH  30  33
BRANCH  30  42
ATOM     42  CB  ASN A   2     -23.795   3.320 -17.316  0.00  0.00    +0.114 C 
BRANCH  42  43
ATOM     43  CG  ASN A   2     -23.876   2.048 -18.147  0.00  0.00    +0.222 C 
ATOM     44  ND2 ASN A   2     -22.744   1.374 -18.321  0.00  0.00    -0.329 N 
ATOM     45 HD21 ASN A   2     -21.863   1.718 -17.889  0.00  0.00    +0.145 HD
ATOM     46 HD22 ASN A   2     -22.740   0.503 -18.889  0.00  0.00    +0.145 HD
ATOM     47  OD1 ASN A   2     -24.944   1.684 -18.636  0.00  0.00    -0.275 OA
ENDBRANCH  42  43
ENDBRANCH  30  42
ENDBRANCH  26  30
ENDBRANCH   1  27
BRANCH   1  48
ATOM     48  CB  SER A   3     -18.138   1.448 -17.115  0.00  0.00    +0.166 C 
BRANCH  48  49
ATOM     49  OG  SER A   3     -17.900   1.795 -15.759  0.00  0.00    -0.380 OA
ATOM     50  H   SER A   3     -17.473   2.687 -15.718  0.00  0.00    +0.211 HD
ENDBRANCH  48  49
ENDBRANCH   1  48
TORSDOF 22
REMARK  Name = ../refined-set-2016/1y3p/1y3p_pocket.pdb
REMARK  303 active torsions:
REMARK  status: ('A' for Active; 'I' for Inactive)
REMARK    1  A    between atoms: _1  and  _3
REMARK    2  A    between atoms: _3  and  _4
REMARK    3  A    between atoms: _3  and  _6
REMARK    4  A    between atoms: _6  and  _7
REMARK    5  A    between atoms: _12  and  _14
REMARK    6  A    between atoms: _14  and  _15
REMARK    7  A    between atoms: _14  and  _17
REMARK    8  A    between atoms: _17  and  _18
REMARK    9  A    between atoms: _24  and  _26
REMARK   10  A    between atoms: _26  and  _27
REMARK   11  A    between atoms: _26  and  _29
REMARK   12  A    between atoms: _29  and  _30
REMARK   13  A    between atoms: _30  and  _31
REMARK   14  A    between atoms: _31  and  _32
REMARK   15  A    between atoms: _41  and  _43
REMARK   16  A    between atoms: _43  and  _44
REMARK   17  A    between atoms: _43  and  _46
REMARK   18  A    between atoms: _46  and  _47
REMARK   19  A    between atoms: _50  and  _52
REMARK   20  A    between atoms: _52  and  _53
REMARK   21  A    between atoms: _52  and  _55
REMARK   22  A    between atoms: _55  and  _56
REMARK   23  A    between atoms: _56  and  _57
REMARK   24  A    between atoms: _57  and  _58
REMARK   25  A    between atoms: _58  and  _59
REMARK   26  A    between atoms: _63  and  _65
REMARK   27  A    between atoms: _65  and  _66
REMARK   28  A    between atoms: _65  and  _68
REMARK   29  A    between atoms: _68  and  _69
REMARK   30  A    between atoms: _79  and  _81
REMARK   31  A    between atoms: _81  and  _82
REMARK   32  A    between atoms: _81  and  _84
REMARK   33  A    between atoms: _84  and  _85
REMARK   34  A    between atoms: _88  and  _90
REMARK   35  A    between atoms: _90  and  _91
REMARK   36  A    between atoms: _90  and  _93
REMARK   37  A    between atoms: _93  and  _94
REMARK   38  A    between atoms: _99  and  _101
REMARK   39  A    between atoms: _101  and  _102
REMARK   40  A    between atoms: _101  and  _104
REMARK   41  A    between atoms: _104  and  _105
REMARK   42  A    between atoms: _107  and  _109
REMARK   43  A    between atoms: _109  and  _110
REMARK   44  A    between atoms: _109  and  _112
REMARK   45  A    between atoms: _112  and  _113
REMARK   46  A    between atoms: _113  and  _114
REMARK   47  A    between atoms: _119  and  _121
REMARK   48  A    between atoms: _121  and  _122
REMARK   49  A    between atoms: _121  and  _124
REMARK   50  A    between atoms: _124  and  _125
REMARK   51  A    between atoms: _125  and  _126
REMARK   52  A    between atoms: _129  and  _131
REMARK   53  A    between atoms: _131  and  _132
REMARK   54  A    between atoms: _134  and  _136
REMARK   55  A    between atoms: _136  and  _137
REMARK   56  A    between atoms: _136  and  _139
REMARK   57  A    between atoms: _139  and  _140
REMARK   58  A    between atoms: _143  and  _145
REMARK   59  A    between atoms: _145  and  _146
REMARK   60  A    between atoms: _145  and  _148
REMARK   61  A    between atoms: _148  and  _149
REMARK   62  A    between atoms: _154  and  _156
REMARK   63  A    between atoms: _156  and  _157
REMARK   64  A    between atoms: _156  and  _159
REMARK   65  A    between atoms: _159  and  _160
REMARK   66  A    between atoms: _163  and  _165
REMARK   67  A    between atoms: _165  and  _166
REMARK   68  A    between atoms: _165  and  _168
REMARK   69  A    between atoms: _168  and  _169
REMARK   70  A    between atoms: _169  and  _170
REMARK   71  A    between atoms: _170  and  _171
REMARK   72  A    between atoms: _171  and  _172
REMARK   73  A    between atoms: _176  and  _178
REMARK   74  A    between atoms: _178  and  _179
REMARK   75  A    between atoms: _178  and  _181
REMARK   76  A    between atoms: _181  and  _182
REMARK   77  A    between atoms: _187  and  _188
REMARK   78  A    between atoms: _191  and  _192
REMARK   79  A    between atoms: _197  and  _199
REMARK   80  A    between atoms: _199  and  _200
REMARK   81  A    between atoms: _199  and  _202
REMARK   82  A    between atoms: _202  and  _203
REMARK   83  A    between atoms: _206  and  _208
REMARK   84  A    between atoms: _208  and  _209
REMARK   85  A    between atoms: _211  and  _213
REMARK   86  A    between atoms: _213  and  _214
REMARK   87  A    between atoms: _213  and  _216
REMARK   88  A    between atoms: _219  and  _221
REMARK   89  A    between atoms: _221  and  _222
REMARK   90  A    between atoms: _221  and  _224
REMARK   91  A    between atoms: _224  and  _225
REMARK   92  A    between atoms: _227  and  _229
REMARK   93  A    between atoms: _229  and  _230
REMARK   94  A    between atoms: _229  and  _232
REMARK   95  A    between atoms: _232  and  _233
REMARK   96  A    between atoms: _233  and  _234
REMARK   97  A    between atoms: _234  and  _235
REMARK   98  A    between atoms: _244  and  _246
REMARK   99  A    between atoms: _246  and  _247
REMARK  100  A    between atoms: _246  and  _249
REMARK  101  A    between atoms: _249  and  _250
REMARK  102  A    between atoms: _255  and  _257
REMARK  103  A    between atoms: _257  and  _258
REMARK  104  A    between atoms: _257  and  _260
REMARK  105  A    between atoms: _260  and  _261
REMARK  106  A    between atoms: _261  and  _262
REMARK  107  A    between atoms: _262  and  _263
REMARK  108  A    between atoms: _272  and  _274
REMARK  109  A    between atoms: _274  and  _275
REMARK  110  A    between atoms: _274  and  _277
REMARK  111  A    between atoms: _277  and  _278
REMARK  112  A    between atoms: _282  and  _283
REMARK  113  A    between atoms: _288  and  _290
REMARK  114  A    between atoms: _290  and  _291
REMARK  115  A    between atoms: _290  and  _293
REMARK  116  A    between atoms: _293  and  _294
REMARK  117  A    between atoms: _294  and  _295
REMARK  118  A    between atoms: _298  and  _300
REMARK  119  A    between atoms: _300  and  _301
REMARK  120  A    between atoms: _300  and  _303
REMARK  121  A    between atoms: _303  and  _304
REMARK  122  A    between atoms: _304  and  _305
REMARK  123  A    between atoms: _308  and  _310
REMARK  124  A    between atoms: _310  and  _311
REMARK  125  A    between atoms: _310  and  _313
REMARK  126  A    between atoms: _313  and  _314
REMARK  127  A    between atoms: _319  and  _321
REMARK  128  A    between atoms: _321  and  _322
REMARK  129  A    between atoms: _321  and  _324
REMARK  130  A    between atoms: _324  and  _325
REMARK  131  A    between atoms: _328  and  _330
REMARK  132  A    between atoms: _330  and  _331
REMARK  133  A    between atoms: _330  and  _333
REMARK  134  A    between atoms: _333  and  _334
REMARK  135  A    between atoms: _344  and  _346
REMARK  136  A    between atoms: _346  and  _347
REMARK  137  A    between atoms: _346  and  _349
REMARK  138  A    between atoms: _349  and  _350
REMARK  139  A    between atoms: _350  and  _351
REMARK  140  A    between atoms: _353  and  _355
REMARK  141  A    between atoms: _355  and  _356
REMARK  142  A    between atoms: _355  and  _358
REMARK  143  A    between atoms: _358  and  _359
REMARK  144  A    between atoms: _359  and  _360
REMARK  145  A    between atoms: _360  and  _361
REMARK  146  A    between atoms: _361  and  _362
REMARK  147  A    between atoms: _366  and  _368
REMARK  148  A    between atoms: _368  and  _369
REMARK  149  A    between atoms: _372  and  _374
REMARK  150  A    between atoms: _374  and  _375
REMARK  151  A    between atoms: _374  and  _377
REMARK  152  A    between atoms: _377  and  _378
REMARK  153  A    between atoms: _378  and  _379
REMARK  154  A    between atoms: _379  and  _380
REMARK  155  A    between atoms: _389  and  _391
REMARK  156  A    between atoms: _391  and  _392
REMARK  157  A    between atoms: _391  and  _394
REMARK  158  A    between atoms: _394  and  _395
REMARK  159  A    between atoms: _398  and  _400
REMARK  160  A    between atoms: _400  and  _401
REMARK  161  A    between atoms: _400  and  _403
REMARK  162  A    between atoms: _403  and  _404
REMARK  163  A    between atoms: _414  and  _416
REMARK  164  A    between atoms: _416  and  _417
REMARK  165  A    between atoms: _416  and  _419
REMARK  166  A    between atoms: _419  and  _420
REMARK  167  A    between atoms: _426  and  _428
REMARK  168  A    between atoms: _428  and  _429
REMARK  169  A    between atoms: _432  and  _434
REMARK  170  A    between atoms: _434  and  _435
REMARK  171  A    between atoms: _434  and  _437
REMARK  172  A    between atoms: _437  and  _438
REMARK  173  A    between atoms: _440  and  _442
REMARK  174  A    between atoms: _442  and  _443
REMARK  175  A    between atoms: _442  and  _445
REMARK  176  A    between atoms: _445  and  _446
REMARK  177  A    between atoms: _449  and  _451
REMARK  178  A    between atoms: _451  and  _452
REMARK  179  A    between atoms: _455  and  _457
REMARK  180  A    between atoms: _457  and  _458
REMARK  181  A    between atoms: _457  and  _460
REMARK  182  A    between atoms: _460  and  _461
REMARK  183  A    between atoms: _464  and  _466
REMARK  184  A    between atoms: _466  and  _467
REMARK  185  A    between atoms: _466  and  _469
REMARK  186  A    between atoms: _469  and  _470
REMARK  187  A    between atoms: _473  and  _475
REMARK  188  A    between atoms: _475  and  _476
REMARK  189  A    between atoms: _475  and  _478
REMARK  190  A    between atoms: _478  and  _479
REMARK  191  A    between atoms: _479  and  _480
REMARK  192  A    between atoms: _480  and  _481
REMARK  193  A    between atoms: _490  and  _492
REMARK  194  A    between atoms: _492  and  _493
REMARK  195  A    between atoms: _492  and  _495
REMARK  196  A    between atoms: _495  and  _496
REMARK  197  A    between atoms: _496  and  _497
REMARK  198  A    between atoms: _502  and  _504
REMARK  199  A    between atoms: _504  and  _505
REMARK  200  A    between atoms: _504  and  _507
REMARK  201  A    between atoms: _507  and  _508
REMARK  202  A    between atoms: _508  and  _509
REMARK  203  A    between atoms: _509  and  _510
REMARK  204  A    between atoms: _520  and  _521
REMARK  205  A    between atoms: _526  and  _528
REMARK  206  A    between atoms: _528  and  _529
REMARK  207  A    between atoms: _528  and  _531
REMARK  208  A    between atoms: _531  and  _532
REMARK  209  A    between atoms: _535  and  _537
REMARK  210  A    between atoms: _537  and  _538
REMARK  211  A    between atoms: _537  and  _540
REMARK  212  A    between atoms: _540  and  _541
REMARK  213  A    between atoms: _547  and  _548
REMARK  214  A    between atoms: _553  and  _555
REMARK  215  A    between atoms: _555  and  _556
REMARK  216  A    between atoms: _555  and  _558
REMARK  217  A    between atoms: _561  and  _563
REMARK  218  A    between atoms: _563  and  _564
REMARK  219  A    between atoms: _563  and  _566
REMARK  220  A    between atoms: _566  and  _567
REMARK  221  A    between atoms: _572  and  _574
REMARK  222  A    between atoms: _574  and  _575
REMARK  223  A    between atoms: _574  and  _577
REMARK  224  A    between atoms: _577  and  _578
REMARK  225  A    between atoms: _583  and  _585
REMARK  226  A    between atoms: _585  and  _586
REMARK  227  A    between atoms: _585  and  _588
REMARK  228  A    between atoms: _588  and  _589
REMARK  229  A    between atoms: _589  and  _590
REMARK  230  A    between atoms: _592  and  _594
REMARK  231  A    between atoms: _594  and  _595
REMARK  232  A    between atoms: _594  and  _597
REMARK  233  A    between atoms: _597  and  _598
REMARK  234  A    between atoms: _603  and  _604
REMARK  235  A    between atoms: _606  and  _608
REMARK  236  A    between atoms: _608  and  _609
REMARK  237  A    between atoms: _608  and  _611
REMARK  238  A    between atoms: _611  and  _612
REMARK  239  A    between atoms: _612  and  _613
REMARK  240  A    between atoms: _618  and  _620
REMARK  241  A    between atoms: _620  and  _621
REMARK  242  A    between atoms: _620  and  _623
REMARK  243  A    between atoms: _623  and  _624
REMARK  244  A    between atoms: _628  and  _629
REMARK  245  A    between atoms: _634  and  _636
REMARK  246  A    between atoms: _636  and  _637
REMARK  247  A    between atoms: _636  and  _639
REMARK  248  A    between atoms: _639  and  _640
REMARK  249  A    between atoms: _646  and  _648
REMARK  250  A    between atoms: _648  and  _649
REMARK  251  A    between atoms: _648  and  _651
REMARK  252  A    between atoms: _651  and  _652
REMARK  253  A    between atoms: _652  and  _653
REMARK  254  A    between atoms: _658  and  _660
REMARK  255  A    between atoms: _660  and  _661
REMARK  256  A    between atoms: _660  and  _663
REMARK  257  A    between atoms: _663  and  _664
REMARK  258  A    between atoms: _667  and  _669
REMARK  259  A    between atoms: _669  and  _670
REMARK  260  A    between atoms: _669  and  _672
REMARK  261  A    between atoms: _672  and  _673
REMARK  262  A    between atoms: _678  and  _679
REMARK  263  A    between atoms: _681  and  _683
REMARK  264  A    between atoms: _683  and  _684
REMARK  265  A    between atoms: _683  and  _686
REMARK  266  A    between atoms: _686  and  _687
REMARK  267  A    between atoms: _692  and  _693
REMARK  268  A    between atoms: _695  and  _697
REMARK  269  A    between atoms: _697  and  _698
REMARK  270  A    between atoms: _697  and  _700
REMARK  271  A    between atoms: _700  and  _701
REMARK  272  A    between atoms: _701  and  _702
REMARK  273  A    between atoms: _705  and  _707
REMARK  274  A    between atoms: _707  and  _708
REMARK  275  A    between atoms: _707  and  _710
REMARK  276  A    between atoms: _710  and  _711
REMARK  277  A    between atoms: _711  and  _712
REMARK  278  A    between atoms: _712  and  _713
REMARK  279  A    between atoms: _722  and  _724
REMARK  280  A    between atoms: _724  and  _725
REMARK  281  A    between atoms: _724  and  _727
REMARK  282  A    between atoms: _727  and  _728
REMARK  283  A    between atoms: _738  and  _740
REMARK  284  A    between atoms: _740  and  _741
REMARK  285  A    between atoms: _740  and  _743
REMARK  286  A    between atoms: _743  and  _744
REMARK  287  A    between atoms: _747  and  _749
REMARK  288  A    between atoms: _749  and  _750
REMARK  289  A    between atoms: _753  and  _755
REMARK  290  A    between atoms: _755  and  _756
REMARK  291  A    between atoms: _755  and  _758
REMARK  292  A    between atoms: _758  and  _759
REMARK  293  A    between atoms: _762  and  _764
REMARK  294  A    between atoms: _764  and  _765
REMARK  295  A    between atoms: _764  and  _767
REMARK  296  A    between atoms: _767  and  _768
REMARK  297  A    between atoms: _768  and  _769
REMARK  298  A    between atoms: _769  and  _770
REMARK  299  A    between atoms: _770  and  _771
REMARK  300  A    between atoms: _775  and  _777
REMARK  301  A    between atoms: _777  and  _778
REMARK  302  A    between atoms: _777  and  _780
REMARK  303  A    between atoms: _780  and  _781
REMARK                            x       y       z     vdW  Elec       q    Type
REMARK                         _______ _______ _______ _____ _____    ______ ____
ROOT
ATOM      1  CA  ASN A   3     -16.269  -6.086 -19.522  0.00  0.00    +0.158 C 
ENDROOT
BRANCH   1   3
ATOM      2  C   ASP A   2     -15.104  -4.320 -18.304  0.00  0.00    +0.241 C 
ATOM      3  N   ASN A   3     -15.241  -5.608 -18.605  0.00  0.00    -0.297 N 
ATOM      4  H   ASN A   3     -14.594  -6.297 -18.172  0.00  0.00    +0.150 HD
ATOM      5  O   ASP A   2     -15.817  -3.431 -18.782  0.00  0.00    -0.273 OA
BRANCH   2   6
ATOM      6  CA  ASP A   2     -14.000  -3.992 -17.302  0.00  0.00    +0.160 C 
BRANCH   6   8
ATOM      7  C   GLY A   1     -12.410  -2.428 -18.312  0.00  0.00    +0.240 C 
ATOM      8  N   ASP A   2     -13.437  -2.658 -17.498  0.00  0.00    -0.297 N 
ATOM      9  H   ASP A   2     -13.855  -1.858 -16.982  0.00  0.00    +0.150 HD
ATOM     10  O   GLY A   1     -11.859  -3.309 -18.970  0.00  0.00    -0.274 OA
BRANCH   7  11
ATOM     11  CA  GLY A   1     -11.943  -0.989 -18.404  0.00  0.00    +0.169 C 
BRANCH  11  12
ATOM     12  N   GLY A   1     -10.813  -0.793 -19.292  0.00  0.00    -0.236 NA
ATOM     13  H   GLY A   1     -10.148  -1.574 -19.461  0.00  0.00    +0.142 HD
ENDBRANCH  11  12
ENDBRANCH   7  11
ENDBRANCH   6   8
BRANCH   6  14
ATOM     14  CB  ASP A   2     -14.575  -4.126 -15.886  0.00  0.00    +0.143 C 
BRANCH  14  15
ATOM     15  CG  ASP A   2     -15.709  -3.149 -15.623  0.00  0.00    +0.367 C 
ATOM     16  OD2 ASP A   2     -16.866  -3.595 -15.452  0.00  0.00    -0.246 OA
ATOM     17  OD1 ASP A   2     -15.445  -1.929 -15.594  0.00  0.00    -0.246 OA
ENDBRANCH  14  15
ENDBRANCH   6  14
ENDBRANCH   2   6
ENDBRANCH   1   3
BRANCH   1  18
ATOM     18  C   ASN A   3     -16.257  -5.363 -20.862  0.00  0.00    +0.241 C 
ATOM     19  O   ASN A   3     -17.309  -4.945 -21.355  0.00  0.00    -0.273 OA
ATOM     20  N   LEU A   4     -15.068  -5.225 -21.446  0.00  0.00    -0.298 N 
ATOM     21  H   LEU A   4     -14.227  -5.605 -20.966  0.00  0.00    +0.150 HD
BRANCH  20  22
ATOM     22  CA  LEU A   4     -14.901  -4.561 -22.734  0.00  0.00    +0.137 C 
BRANCH  22  23
ATOM     23  C   LEU A   4     -14.394  -5.504 -23.823  0.00  0.00    +0.227 C 
ATOM     24  O   LEU A   4     -14.261  -5.105 -24.981  0.00  0.00    -0.286 OA
ENDBRANCH  22  23
BRANCH  22  25
ATOM     25  CB  LEU A   4     -13.931  -3.381 -22.606  0.00  0.00    +0.028 C 
BRANCH  25  26
ATOM     26  CG  LEU A   4     -14.424  -2.159 -21.823  0.00  0.00    +0.002 C 
ATOM     27  CD2 LEU A   4     -13.348  -1.074 -21.825  0.00  0.00    +0.000 C 
ATOM     28  CD1 LEU A   4     -15.701  -1.632 -22.453  0.00  0.00    +0.000 C 
ENDBRANCH  25  26
ENDBRANCH  22  25
ENDBRANCH  20  22
ENDBRANCH   1  18
BRANCH   1  29
ATOM     29  CB  ASN A   3     -17.641  -5.929 -18.865  0.00  0.00    +0.114 C 
BRANCH  29  30
ATOM     30  CG  ASN A   3     -17.731  -6.659 -17.545  0.00  0.00    +0.222 C 
ATOM     31  ND2 ASN A   3     -17.787  -5.903 -16.457  0.00  0.00    -0.329 N 
ATOM     32 HD21 ASN A   3     -17.841  -6.346 -15.518  0.00  0.00    +0.145 HD
ATOM     33 HD22 ASN A   3     -17.777  -4.867 -16.543  0.00  0.00    +0.145 HD
ATOM     34  OD1 ASN A   3     -17.740  -7.889 -17.500  0.00  0.00    -0.275 OA
ENDBRANCH  29  30
ENDBRANCH   1  29
TORSDOF 14
REMARK  Name = ../refined-set-2016/1y3p/1y3p_pocket.pdb
REMARK  303 active torsions:
REMARK  status: ('A' for Active; 'I' for Inactive)
REMARK    1  A    between atoms: _1  and  _3
REMARK    2  A    between atoms: _3  and  _4
REMARK    3  A    between atoms: _3  and  _6
REMARK    4  A    between atoms: _6  and  _7
REMARK    5  A    between atoms: _12  and  _14
REMARK    6  A    between atoms: _14  and  _15
REMARK    7  A    between atoms: _14  and  _17
REMARK    8  A    between atoms: _17  and  _18
REMARK    9  A    between atoms: _24  and  _26
REMARK   10  A    between atoms: _26  and  _27
REMARK   11  A    between atoms: _26  and  _29
REMARK   12  A    between atoms: _29  and  _30
REMARK   13  A    between atoms: _30  and  _31
REMARK   14  A    between atoms: _31  and  _32
REMARK   15  A    between atoms: _41  and  _43
REMARK   16  A    between atoms: _43  and  _44
REMARK   17  A    between atoms: _43  and  _46
REMARK   18  A    between atoms: _46  and  _47
REMARK   19  A    between atoms: _50  and  _52
REMARK   20  A    between atoms: _52  and  _53
REMARK   21  A    between atoms: _52  and  _55
REMARK   22  A    between atoms: _55  and  _56
REMARK   23  A    between atoms: _56  and  _57
REMARK   24  A    between atoms: _57  and  _58
REMARK   25  A    between atoms: _58  and  _59
REMARK   26  A    between atoms: _63  and  _65
REMARK   27  A    between atoms: _65  and  _66
REMARK   28  A    between atoms: _65  and  _68
REMARK   29  A    between atoms: _68  and  _69
REMARK   30  A    between atoms: _79  and  _81
REMARK   31  A    between atoms: _81  and  _82
REMARK   32  A    between atoms: _81  and  _84
REMARK   33  A    between atoms: _84  and  _85
REMARK   34  A    between atoms: _88  and  _90
REMARK   35  A    between atoms: _90  and  _91
REMARK   36  A    between atoms: _90  and  _93
REMARK   37  A    between atoms: _93  and  _94
REMARK   38  A    between atoms: _99  and  _101
REMARK   39  A    between atoms: _101  and  _102
REMARK   40  A    between atoms: _101  and  _104
REMARK   41  A    between atoms: _104  and  _105
REMARK   42  A    between atoms: _107  and  _109
REMARK   43  A    between atoms: _109  and  _110
REMARK   44  A    between atoms: _109  and  _112
REMARK   45  A    between atoms: _112  and  _113
REMARK   46  A    between atoms: _113  and  _114
REMARK   47  A    between atoms: _119  and  _121
REMARK   48  A    between atoms: _121  and  _122
REMARK   49  A    between atoms: _121  and  _124
REMARK   50  A    between atoms: _124  and  _125
REMARK   51  A    between atoms: _125  and  _126
REMARK   52  A    between atoms: _129  and  _131
REMARK   53  A    between atoms: _131  and  _132
REMARK   54  A    between atoms: _134  and  _136
REMARK   55  A    between atoms: _136  and  _137
REMARK   56  A    between atoms: _136  and  _139
REMARK   57  A    between atoms: _139  and  _140
REMARK   58  A    between atoms: _143  and  _145
REMARK   59  A    between atoms: _145  and  _146
REMARK   60  A    between atoms: _145  and  _148
REMARK   61  A    between atoms: _148  and  _149
REMARK   62  A    between atoms: _154  and  _156
REMARK   63  A    between atoms: _156  and  _157
REMARK   64  A    between atoms: _156  and  _159
REMARK   65  A    between atoms: _159  and  _160
REMARK   66  A    between atoms: _163  and  _165
REMARK   67  A    between atoms: _165  and  _166
REMARK   68  A    between atoms: _165  and  _168
REMARK   69  A    between atoms: _168  and  _169
REMARK   70  A    between atoms: _169  and  _170
REMARK   71  A    between atoms: _170  and  _171
REMARK   72  A    between atoms: _171  and  _172
REMARK   73  A    between atoms: _176  and  _178
REMARK   74  A    between atoms: _178  and  _179
REMARK   75  A    between atoms: _178  and  _181
REMARK   76  A    between atoms: _181  and  _182
REMARK   77  A    between atoms: _187  and  _188
REMARK   78  A    between atoms: _191  and  _192
REMARK   79  A    between atoms: _197  and  _199
REMARK   80  A    between atoms: _199  and  _200
REMARK   81  A    between atoms: _199  and  _202
REMARK   82  A    between atoms: _202  and  _203
REMARK   83  A    between atoms: _206  and  _208
REMARK   84  A    between atoms: _208  and  _209
REMARK   85  A    between atoms: _211  and  _213
REMARK   86  A    between atoms: _213  and  _214
REMARK   87  A    between atoms: _213  and  _216
REMARK   88  A    between atoms: _219  and  _221
REMARK   89  A    between atoms: _221  and  _222
REMARK   90  A    between atoms: _221  and  _224
REMARK   91  A    between atoms: _224  and  _225
REMARK   92  A    between atoms: _227  and  _229
REMARK   93  A    between atoms: _229  and  _230
REMARK   94  A    between atoms: _229  and  _232
REMARK   95  A    between atoms: _232  and  _233
REMARK   96  A    between atoms: _233  and  _234
REMARK   97  A    between atoms: _234  and  _235
REMARK   98  A    between atoms: _244  and  _246
REMARK   99  A    between atoms: _246  and  _247
REMARK  100  A    between atoms: _246  and  _249
REMARK  101  A    between atoms: _249  and  _250
REMARK  102  A    between atoms: _255  and  _257
REMARK  103  A    between atoms: _257  and  _258
REMARK  104  A    between atoms: _257  and  _260
REMARK  105  A    between atoms: _260  and  _261
REMARK  106  A    between atoms: _261  and  _262
REMARK  107  A    between atoms: _262  and  _263
REMARK  108  A    between atoms: _272  and  _274
REMARK  109  A    between atoms: _274  and  _275
REMARK  110  A    between atoms: _274  and  _277
REMARK  111  A    between atoms: _277  and  _278
REMARK  112  A    between atoms: _282  and  _283
REMARK  113  A    between atoms: _288  and  _290
REMARK  114  A    between atoms: _290  and  _291
REMARK  115  A    between atoms: _290  and  _293
REMARK  116  A    between atoms: _293  and  _294
REMARK  117  A    between atoms: _294  and  _295
REMARK  118  A    between atoms: _298  and  _300
REMARK  119  A    between atoms: _300  and  _301
REMARK  120  A    between atoms: _300  and  _303
REMARK  121  A    between atoms: _303  and  _304
REMARK  122  A    between atoms: _304  and  _305
REMARK  123  A    between atoms: _308  and  _310
REMARK  124  A    between atoms: _310  and  _311
REMARK  125  A    between atoms: _310  and  _313
REMARK  126  A    between atoms: _313  and  _314
REMARK  127  A    between atoms: _319  and  _321
REMARK  128  A    between atoms: _321  and  _322
REMARK  129  A    between atoms: _321  and  _324
REMARK  130  A    between atoms: _324  and  _325
REMARK  131  A    between atoms: _328  and  _330
REMARK  132  A    between atoms: _330  and  _331
REMARK  133  A    between atoms: _330  and  _333
REMARK  134  A    between atoms: _333  and  _334
REMARK  135  A    between atoms: _344  and  _346
REMARK  136  A    between atoms: _346  and  _347
REMARK  137  A    between atoms: _346  and  _349
REMARK  138  A    between atoms: _349  and  _350
REMARK  139  A    between atoms: _350  and  _351
REMARK  140  A    between atoms: _353  and  _355
REMARK  141  A    between atoms: _355  and  _356
REMARK  142  A    between atoms: _355  and  _358
REMARK  143  A    between atoms: _358  and  _359
REMARK  144  A    between atoms: _359  and  _360
REMARK  145  A    between atoms: _360  and  _361
REMARK  146  A    between atoms: _361  and  _362
REMARK  147  A    between atoms: _366  and  _368
REMARK  148  A    between atoms: _368  and  _369
REMARK  149  A    between atoms: _372  and  _374
REMARK  150  A    between atoms: _374  and  _375
REMARK  151  A    between atoms: _374  and  _377
REMARK  152  A    between atoms: _377  and  _378
REMARK  153  A    between atoms: _378  and  _379
REMARK  154  A    between atoms: _379  and  _380
REMARK  155  A    between atoms: _389  and  _391
REMARK  156  A    between atoms: _391  and  _392
REMARK  157  A    between atoms: _391  and  _394
REMARK  158  A    between atoms: _394  and  _395
REMARK  159  A    between atoms: _398  and  _400
REMARK  160  A    between atoms: _400  and  _401
REMARK  161  A    between atoms: _400  and  _403
REMARK  162  A    between atoms: _403  and  _404
REMARK  163  A    between atoms: _414  and  _416
REMARK  164  A    between atoms: _416  and  _417
REMARK  165  A    between atoms: _416  and  _419
REMARK  166  A    between atoms: _419  and  _420
REMARK  167  A    between atoms: _426  and  _428
REMARK  168  A    between atoms: _428  and  _429
REMARK  169  A    between atoms: _432  and  _434
REMARK  170  A    between atoms: _434  and  _435
REMARK  171  A    between atoms: _434  and  _437
REMARK  172  A    between atoms: _437  and  _438
REMARK  173  A    between atoms: _440  and  _442
REMARK  174  A    between atoms: _442  and  _443
REMARK  175  A    between atoms: _442  and  _445
REMARK  176  A    between atoms: _445  and  _446
REMARK  177  A    between atoms: _449  and  _451
REMARK  178  A    between atoms: _451  and  _452
REMARK  179  A    between atoms: _455  and  _457
REMARK  180  A    between atoms: _457  and  _458
REMARK  181  A    between atoms: _457  and  _460
REMARK  182  A    between atoms: _460  and  _461
REMARK  183  A    between atoms: _464  and  _466
REMARK  184  A    between atoms: _466  and  _467
REMARK  185  A    between atoms: _466  and  _469
REMARK  186  A    between atoms: _469  and  _470
REMARK  187  A    between atoms: _473  and  _475
REMARK  188  A    between atoms: _475  and  _476
REMARK  189  A    between atoms: _475  and  _478
REMARK  190  A    between atoms: _478  and  _479
REMARK  191  A    between atoms: _479  and  _480
REMARK  192  A    between atoms: _480  and  _481
REMARK  193  A    between atoms: _490  and  _492
REMARK  194  A    between atoms: _492  and  _493
REMARK  195  A    between atoms: _492  and  _495
REMARK  196  A    between atoms: _495  and  _496
REMARK  197  A    between atoms: _496  and  _497
REMARK  198  A    between atoms: _502  and  _504
REMARK  199  A    between atoms: _504  and  _505
REMARK  200  A    between atoms: _504  and  _507
REMARK  201  A    between atoms: _507  and  _508
REMARK  202  A    between atoms: _508  and  _509
REMARK  203  A    between atoms: _509  and  _510
REMARK  204  A    between atoms: _520  and  _521
REMARK  205  A    between atoms: _526  and  _528
REMARK  206  A    between atoms: _528  and  _529
REMARK  207  A    between atoms: _528  and  _531
REMARK  208  A    between atoms: _531  and  _532
REMARK  209  A    between atoms: _535  and  _537
REMARK  210  A    between atoms: _537  and  _538
REMARK  211  A    between atoms: _537  and  _540
REMARK  212  A    between atoms: _540  and  _541
REMARK  213  A    between atoms: _547  and  _548
REMARK  214  A    between atoms: _553  and  _555
REMARK  215  A    between atoms: _555  and  _556
REMARK  216  A    between atoms: _555  and  _558
REMARK  217  A    between atoms: _561  and  _563
REMARK  218  A    between atoms: _563  and  _564
REMARK  219  A    between atoms: _563  and  _566
REMARK  220  A    between atoms: _566  and  _567
REMARK  221  A    between atoms: _572  and  _574
REMARK  222  A    between atoms: _574  and  _575
REMARK  223  A    between atoms: _574  and  _577
REMARK  224  A    between atoms: _577  and  _578
REMARK  225  A    between atoms: _583  and  _585
REMARK  226  A    between atoms: _585  and  _586
REMARK  227  A    between atoms: _585  and  _588
REMARK  228  A    between atoms: _588  and  _589
REMARK  229  A    between atoms: _589  and  _590
REMARK  230  A    between atoms: _592  and  _594
REMARK  231  A    between atoms: _594  and  _595
REMARK  232  A    between atoms: _594  and  _597
REMARK  233  A    between atoms: _597  and  _598
REMARK  234  A    between atoms: _603  and  _604
REMARK  235  A    between atoms: _606  and  _608
REMARK  236  A    between atoms: _608  and  _609
REMARK  237  A    between atoms: _608  and  _611
REMARK  238  A    between atoms: _611  and  _612
REMARK  239  A    between atoms: _612  and  _613
REMARK  240  A    between atoms: _618  and  _620
REMARK  241  A    between atoms: _620  and  _621
REMARK  242  A    between atoms: _620  and  _623
REMARK  243  A    between atoms: _623  and  _624
REMARK  244  A    between atoms: _628  and  _629
REMARK  245  A    between atoms: _634  and  _636
REMARK  246  A    between atoms: _636  and  _637
REMARK  247  A    between atoms: _636  and  _639
REMARK  248  A    between atoms: _639  and  _640
REMARK  249  A    between atoms: _646  and  _648
REMARK  250  A    between atoms: _648  and  _649
REMARK  251  A    between atoms: _648  and  _651
REMARK  252  A    between atoms: _651  and  _652
REMARK  253  A    between atoms: _652  and  _653
REMARK  254  A    between atoms: _658  and  _660
REMARK  255  A    between atoms: _660  and  _661
REMARK  256  A    between atoms: _660  and  _663
REMARK  257  A    between atoms: _663  and  _664
REMARK  258  A    between atoms: _667  and  _669
REMARK  259  A    between atoms: _669  and  _670
REMARK  260  A    between atoms: _669  and  _672
REMARK  261  A    between atoms: _672  and  _673
REMARK  262  A    between atoms: _678  and  _679
REMARK  263  A    between atoms: _681  and  _683
REMARK  264  A    between atoms: _683  and  _684
REMARK  265  A    between atoms: _683  and  _686
REMARK  266  A    between atoms: _686  and  _687
REMARK  267  A    between atoms: _692  and  _693
REMARK  268  A    between atoms: _695  and  _697
REMARK  269  A    between atoms: _697  and  _698
REMARK  270  A    between atoms: _697  and  _700
REMARK  271  A    between atoms: _700  and  _701
REMARK  272  A    between atoms: _701  and  _702
REMARK  273  A    between atoms: _705  and  _707
REMARK  274  A    between atoms: _707  and  _708
REMARK  275  A    between atoms: _707  and  _710
REMARK  276  A    between atoms: _710  and  _711
REMARK  277  A    between atoms: _711  and  _712
REMARK  278  A    between atoms: _712  and  _713
REMARK  279  A    between atoms: _722  and  _724
REMARK  280  A    between atoms: _724  and  _725
REMARK  281  A    between atoms: _724  and  _727
REMARK  282  A    between atoms: _727  and  _728
REMARK  283  A    between atoms: _738  and  _740
REMARK  284  A    between atoms: _740  and  _741
REMARK  285  A    between atoms: _740  and  _743
REMARK  286  A    between atoms: _743  and  _744
REMARK  287  A    between atoms: _747  and  _749
REMARK  288  A    between atoms: _749  and  _750
REMARK  289  A    between atoms: _753  and  _755
REMARK  290  A    between atoms: _755  and  _756
REMARK  291  A    between atoms: _755  and  _758
REMARK  292  A    between atoms: _758  and  _759
REMARK  293  A    between atoms: _762  and  _764
REMARK  294  A    between atoms: _764  and  _765
REMARK  295  A    between atoms: _764  and  _767
REMARK  296  A    between atoms: _767  and  _768
REMARK  297  A    between atoms: _768  and  _769
REMARK  298  A    between atoms: _769  and  _770
REMARK  299  A    between atoms: _770  and  _771
REMARK  300  A    between atoms: _775  and  _777
REMARK  301  A    between atoms: _777  and  _778
REMARK  302  A    between atoms: _777  and  _780
REMARK  303  A    between atoms: _780  and  _781
REMARK                            x       y       z     vdW  Elec       q    Type
REMARK                         _______ _______ _______ _____ _____    ______ ____
ROOT
ATOM      1  CG  LYS A   1     -18.000  -3.051 -26.306  0.00  0.00    -0.000 C 
ENDROOT
BRANCH   1   2
ATOM      2  CB  LYS A   1     -16.530  -3.020 -26.720  0.00  0.00    +0.025 C 
BRANCH   2   3
ATOM      3  CA  LYS A   1     -16.204  -4.164 -27.688  0.00  0.00    +0.133 C 
BRANCH   3   4
ATOM      4  N   LYS A   1     -16.306  -5.444 -27.003  0.00  0.00    -0.239 NA
ATOM      5  H   LYS A   1     -16.282  -5.479 -25.964  0.00  0.00    +0.142 HD
ENDBRANCH   3   4
BRANCH   3   6
ATOM      6  C   LYS A   1     -14.815  -4.020 -28.304  0.00  0.00    +0.224 C 
ATOM      7  O   LYS A   1     -14.677  -3.540 -29.433  0.00  0.00    -0.287 OA
ENDBRANCH   3   6
ENDBRANCH   2   3
ENDBRANCH   1   2
BRANCH   1   8
ATOM      8  CD  LYS A   1     -18.443  -1.886 -25.439  0.00  0.00    -0.024 C 
BRANCH   8   9
ATOM      9  CE  LYS A   1     -19.917  -2.064 -25.058  0.00  0.00    -0.086 C 
BRANCH   9  10
ATOM     10  NZ  LYS A   1     -20.475  -0.916 -24.291  0.00  0.00    +0.380 N 
ATOM     11  HZ1 LYS A   1     -19.937  -0.796 -23.409  0.00  0.00    -0.089 HD
ATOM     12  HZ2 LYS A   1     -21.473  -1.103 -24.067  0.00  0.00    -0.089 HD
ATOM     13  HZ3 LYS A   1     -20.403  -0.051 -24.863  0.00  0.00    -0.089 HD
ENDBRANCH   9  10
ENDBRANCH   8   9
ENDBRANCH   1   8
TORSDOF 7
REMARK  Name = ../refined-set-2016/1y3p/1y3p_pocket.pdb
REMARK  303 active torsions:
REMARK  status: ('A' for Active; 'I' for Inactive)
REMARK    1  A    between atoms: _1  and  _3
REMARK    2  A    between atoms: _3  and  _4
REMARK    3  A    between atoms: _3  and  _6
REMARK    4  A    between atoms: _6  and  _7
REMARK    5  A    between atoms: _12  and  _14
REMARK    6  A    between atoms: _14  and  _15
REMARK    7  A    between atoms: _14  and  _17
REMARK    8  A    between atoms: _17  and  _18
REMARK    9  A    between atoms: _24  and  _26
REMARK   10  A    between atoms: _26  and  _27
REMARK   11  A    between atoms: _26  and  _29
REMARK   12  A    between atoms: _29  and  _30
REMARK   13  A    between atoms: _30  and  _31
REMARK   14  A    between atoms: _31  and  _32
REMARK   15  A    between atoms: _41  and  _43
REMARK   16  A    between atoms: _43  and  _44
REMARK   17  A    between atoms: _43  and  _46
REMARK   18  A    between atoms: _46  and  _47
REMARK   19  A    between atoms: _50  and  _52
REMARK   20  A    between atoms: _52  and  _53
REMARK   21  A    between atoms: _52  and  _55
REMARK   22  A    between atoms: _55  and  _56
REMARK   23  A    between atoms: _56  and  _57
REMARK   24  A    between atoms: _57  and  _58
REMARK   25  A    between atoms: _58  and  _59
REMARK   26  A    between atoms: _63  and  _65
REMARK   27  A    between atoms: _65  and  _66
REMARK   28  A    between atoms: _65  and  _68
REMARK   29  A    between atoms: _68  and  _69
REMARK   30  A    between atoms: _79  and  _81
REMARK   31  A    between atoms: _81  and  _82
REMARK   32  A    between atoms: _81  and  _84
REMARK   33  A    between atoms: _84  and  _85
REMARK   34  A    between atoms: _88  and  _90
REMARK   35  A    between atoms: _90  and  _91
REMARK   36  A    between atoms: _90  and  _93
REMARK   37  A    between atoms: _93  and  _94
REMARK   38  A    between atoms: _99  and  _101
REMARK   39  A    between atoms: _101  and  _102
REMARK   40  A    between atoms: _101  and  _104
REMARK   41  A    between atoms: _104  and  _105
REMARK   42  A    between atoms: _107  and  _109
REMARK   43  A    between atoms: _109  and  _110
REMARK   44  A    between atoms: _109  and  _112
REMARK   45  A    between atoms: _112  and  _113
REMARK   46  A    between atoms: _113  and  _114
REMARK   47  A    between atoms: _119  and  _121
REMARK   48  A    between atoms: _121  and  _122
REMARK   49  A    between atoms: _121  and  _124
REMARK   50  A    between atoms: _124  and  _125
REMARK   51  A    between atoms: _125  and  _126
REMARK   52  A    between atoms: _129  and  _131
REMARK   53  A    between atoms: _131  and  _132
REMARK   54  A    between atoms: _134  and  _136
REMARK   55  A    between atoms: _136  and  _137
REMARK   56  A    between atoms: _136  and  _139
REMARK   57  A    between atoms: _139  and  _140
REMARK   58  A    between atoms: _143  and  _145
REMARK   59  A    between atoms: _145  and  _146
REMARK   60  A    between atoms: _145  and  _148
REMARK   61  A    between atoms: _148  and  _149
REMARK   62  A    between atoms: _154  and  _156
REMARK   63  A    between atoms: _156  and  _157
REMARK   64  A    between atoms: _156  and  _159
REMARK   65  A    between atoms: _159  and  _160
REMARK   66  A    between atoms: _163  and  _165
REMARK   67  A    between atoms: _165  and  _166
REMARK   68  A    between atoms: _165  and  _168
REMARK   69  A    between atoms: _168  and  _169
REMARK   70  A    between atoms: _169  and  _170
REMARK   71  A    between atoms: _170  and  _171
REMARK   72  A    between atoms: _171  and  _172
REMARK   73  A    between atoms: _176  and  _178
REMARK   74  A    between atoms: _178  and  _179
REMARK   75  A    between atoms: _178  and  _181
REMARK   76  A    between atoms: _181  and  _182
REMARK   77  A    between atoms: _187  and  _188
REMARK   78  A    between atoms: _191  and  _192
REMARK   79  A    between atoms: _197  and  _199
REMARK   80  A    between atoms: _199  and  _200
REMARK   81  A    between atoms: _199  and  _202
REMARK   82  A    between atoms: _202  and  _203
REMARK   83  A    between atoms: _206  and  _208
REMARK   84  A    between atoms: _208  and  _209
REMARK   85  A    between atoms: _211  and  _213
REMARK   86  A    between atoms: _213  and  _214
REMARK   87  A    between atoms: _213  and  _216
REMARK   88  A    between atoms: _219  and  _221
REMARK   89  A    between atoms: _221  and  _222
REMARK   90  A    between atoms: _221  and  _224
REMARK   91  A    between atoms: _224  and  _225
REMARK   92  A    between atoms: _227  and  _229
REMARK   93  A    between atoms: _229  and  _230
REMARK   94  A    between atoms: _229  and  _232
REMARK   95  A    between atoms: _232  and  _233
REMARK   96  A    between atoms: _233  and  _234
REMARK   97  A    between atoms: _234  and  _235
REMARK   98  A    between atoms: _244  and  _246
REMARK   99  A    between atoms: _246  and  _247
REMARK  100  A    between atoms: _246  and  _249
REMARK  101  A    between atoms: _249  and  _250
REMARK  102  A    between atoms: _255  and  _257
REMARK  103  A    between atoms: _257  and  _258
REMARK  104  A    between atoms: _257  and  _260
REMARK  105  A    between atoms: _260  and  _261
REMARK  106  A    between atoms: _261  and  _262
REMARK  107  A    between atoms: _262  and  _263
REMARK  108  A    between atoms: _272  and  _274
REMARK  109  A    between atoms: _274  and  _275
REMARK  110  A    between atoms: _274  and  _277
REMARK  111  A    between atoms: _277  and  _278
REMARK  112  A    between atoms: _282  and  _283
REMARK  113  A    between atoms: _288  and  _290
REMARK  114  A    between atoms: _290  and  _291
REMARK  115  A    between atoms: _290  and  _293
REMARK  116  A    between atoms: _293  and  _294
REMARK  117  A    between atoms: _294  and  _295
REMARK  118  A    between atoms: _298  and  _300
REMARK  119  A    between atoms: _300  and  _301
REMARK  120  A    between atoms: _300  and  _303
REMARK  121  A    between atoms: _303  and  _304
REMARK  122  A    between atoms: _304  and  _305
REMARK  123  A    between atoms: _308  and  _310
REMARK  124  A    between atoms: _310  and  _311
REMARK  125  A    between atoms: _310  and  _313
REMARK  126  A    between atoms: _313  and  _314
REMARK  127  A    between atoms: _319  and  _321
REMARK  128  A    between atoms: _321  and  _322
REMARK  129  A    between atoms: _321  and  _324
REMARK  130  A    between atoms: _324  and  _325
REMARK  131  A    between atoms: _328  and  _330
REMARK  132  A    between atoms: _330  and  _331
REMARK  133  A    between atoms: _330  and  _333
REMARK  134  A    between atoms: _333  and  _334
REMARK  135  A    between atoms: _344  and  _346
REMARK  136  A    between atoms: _346  and  _347
REMARK  137  A    between atoms: _346  and  _349
REMARK  138  A    between atoms: _349  and  _350
REMARK  139  A    between atoms: _350  and  _351
REMARK  140  A    between atoms: _353  and  _355
REMARK  141  A    between atoms: _355  and  _356
REMARK  142  A    between atoms: _355  and  _358
REMARK  143  A    between atoms: _358  and  _359
REMARK  144  A    between atoms: _359  and  _360
REMARK  145  A    between atoms: _360  and  _361
REMARK  146  A    between atoms: _361  and  _362
REMARK  147  A    between atoms: _366  and  _368
REMARK  148  A    between atoms: _368  and  _369
REMARK  149  A    between atoms: _372  and  _374
REMARK  150  A    between atoms: _374  and  _375
REMARK  151  A    between atoms: _374  and  _377
REMARK  152  A    between atoms: _377  and  _378
REMARK  153  A    between atoms: _378  and  _379
REMARK  154  A    between atoms: _379  and  _380
REMARK  155  A    between atoms: _389  and  _391
REMARK  156  A    between atoms: _391  and  _392
REMARK  157  A    between atoms: _391  and  _394
REMARK  158  A    between atoms: _394  and  _395
REMARK  159  A    between atoms: _398  and  _400
REMARK  160  A    between atoms: _400  and  _401
REMARK  161  A    between atoms: _400  and  _403
REMARK  162  A    between atoms: _403  and  _404
REMARK  163  A    between atoms: _414  and  _416
REMARK  164  A    between atoms: _416  and  _417
REMARK  165  A    between atoms: _416  and  _419
REMARK  166  A    between atoms: _419  and  _420
REMARK  167  A    between atoms: _426  and  _428
REMARK  168  A    between atoms: _428  and  _429
REMARK  169  A    between atoms: _432  and  _434
REMARK  170  A    between atoms: _434  and  _435
REMARK  171  A    between atoms: _434  and  _437
REMARK  172  A    between atoms: _437  and  _438
REMARK  173  A    between atoms: _440  and  _442
REMARK  174  A    between atoms: _442  and  _443
REMARK  175  A    between atoms: _442  and  _445
REMARK  176  A    between atoms: _445  and  _446
REMARK  177  A    between atoms: _449  and  _451
REMARK  178  A    between atoms: _451  and  _452
REMARK  179  A    between atoms: _455  and  _457
REMARK  180  A    between atoms: _457  and  _458
REMARK  181  A    between atoms: _457  and  _460
REMARK  182  A    between atoms: _460  and  _461
REMARK  183  A    between atoms: _464  and  _466
REMARK  184  A    between atoms: _466  and  _467
REMARK  185  A    between atoms: _466  and  _469
REMARK  186  A    between atoms: _469  and  _470
REMARK  187  A    between atoms: _473  and  _475
REMARK  188  A    between atoms: _475  and  _476
REMARK  189  A    between atoms: _475  and  _478
REMARK  190  A    between atoms: _478  and  _479
REMARK  191  A    between atoms: _479  and  _480
REMARK  192  A    between atoms: _480  and  _481
REMARK  193  A    between atoms: _490  and  _492
REMARK  194  A    between atoms: _492  and  _493
REMARK  195  A    between atoms: _492  and  _495
REMARK  196  A    between atoms: _495  and  _496
REMARK  197  A    between atoms: _496  and  _497
REMARK  198  A    between atoms: _502  and  _504
REMARK  199  A    between atoms: _504  and  _505
REMARK  200  A    between atoms: _504  and  _507
REMARK  201  A    between atoms: _507  and  _508
REMARK  202  A    between atoms: _508  and  _509
REMARK  203  A    between atoms: _509  and  _510
REMARK  204  A    between atoms: _520  and  _521
REMARK  205  A    between atoms: _526  and  _528
REMARK  206  A    between atoms: _528  and  _529
REMARK  207  A    between atoms: _528  and  _531
REMARK  208  A    between atoms: _531  and  _532
REMARK  209  A    between atoms: _535  and  _537
REMARK  210  A    between atoms: _537  and  _538
REMARK  211  A    between atoms: _537  and  _540
REMARK  212  A    between atoms: _540  and  _541
REMARK  213  A    between atoms: _547  and  _548
REMARK  214  A    between atoms: _553  and  _555
REMARK  215  A    between atoms: _555  and  _556
REMARK  216  A    between atoms: _555  and  _558
REMARK  217  A    between atoms: _561  and  _563
REMARK  218  A    between atoms: _563  and  _564
REMARK  219  A    between atoms: _563  and  _566
REMARK  220  A    between atoms: _566  and  _567
REMARK  221  A    between atoms: _572  and  _574
REMARK  222  A    between atoms: _574  and  _575
REMARK  223  A    between atoms: _574  and  _577
REMARK  224  A    between atoms: _577  and  _578
REMARK  225  A    between atoms: _583  and  _585
REMARK  226  A    between atoms: _585  and  _586
REMARK  227  A    between atoms: _585  and  _588
REMARK  228  A    between atoms: _588  and  _589
REMARK  229  A    between atoms: _589  and  _590
REMARK  230  A    between atoms: _592  and  _594
REMARK  231  A    between atoms: _594  and  _595
REMARK  232  A    between atoms: _594  and  _597
REMARK  233  A    between atoms: _597  and  _598
REMARK  234  A    between atoms: _603  and  _604
REMARK  235  A    between atoms: _606  and  _608
REMARK  236  A    between atoms: _608  and  _609
REMARK  237  A    between atoms: _608  and  _611
REMARK  238  A    between atoms: _611  and  _612
REMARK  239  A    between atoms: _612  and  _613
REMARK  240  A    between atoms: _618  and  _620
REMARK  241  A    between atoms: _620  and  _621
REMARK  242  A    between atoms: _620  and  _623
REMARK  243  A    between atoms: _623  and  _624
REMARK  244  A    between atoms: _628  and  _629
REMARK  245  A    between atoms: _634  and  _636
REMARK  246  A    between atoms: _636  and  _637
REMARK  247  A    between atoms: _636  and  _639
REMARK  248  A    between atoms: _639  and  _640
REMARK  249  A    between atoms: _646  and  _648
REMARK  250  A    between atoms: _648  and  _649
REMARK  251  A    between atoms: _648  and  _651
REMARK  252  A    between atoms: _651  and  _652
REMARK  253  A    between atoms: _652  and  _653
REMARK  254  A    between atoms: _658  and  _660
REMARK  255  A    between atoms: _660  and  _661
REMARK  256  A    between atoms: _660  and  _663
REMARK  257  A    between atoms: _663  and  _664
REMARK  258  A    between atoms: _667  and  _669
REMARK  259  A    between atoms: _669  and  _670
REMARK  260  A    between atoms: _669  and  _672
REMARK  261  A    between atoms: _672  and  _673
REMARK  262  A    between atoms: _678  and  _679
REMARK  263  A    between atoms: _681  and  _683
REMARK  264  A    between atoms: _683  and  _684
REMARK  265  A    between atoms: _683  and  _686
REMARK  266  A    between atoms: _686  and  _687
REMARK  267  A    between atoms: _692  and  _693
REMARK  268  A    between atoms: _695  and  _697
REMARK  269  A    between atoms: _697  and  _698
REMARK  270  A    between atoms: _697  and  _700
REMARK  271  A    between atoms: _700  and  _701
REMARK  272  A    between atoms: _701  and  _702
REMARK  273  A    between atoms: _705  and  _707
REMARK  274  A    between atoms: _707  and  _708
REMARK  275  A    between atoms: _707  and  _710
REMARK  276  A    between atoms: _710  and  _711
REMARK  277  A    between atoms: _711  and  _712
REMARK  278  A    between atoms: _712  and  _713
REMARK  279  A    between atoms: _722  and  _724
REMARK  280  A    between atoms: _724  and  _725
REMARK  281  A    between atoms: _724  and  _727
REMARK  282  A    between atoms: _727  and  _728
REMARK  283  A    between atoms: _738  and  _740
REMARK  284  A    between atoms: _740  and  _741
REMARK  285  A    between atoms: _740  and  _743
REMARK  286  A    between atoms: _743  and  _744
REMARK  287  A    between atoms: _747  and  _749
REMARK  288  A    between atoms: _749  and  _750
REMARK  289  A    between atoms: _753  and  _755
REMARK  290  A    between atoms: _755  and  _756
REMARK  291  A    between atoms: _755  and  _758
REMARK  292  A    between atoms: _758  and  _759
REMARK  293  A    between atoms: _762  and  _764
REMARK  294  A    between atoms: _764  and  _765
REMARK  295  A    between atoms: _764  and  _767
REMARK  296  A    between atoms: _767  and  _768
REMARK  297  A    between atoms: _768  and  _769
REMARK  298  A    between atoms: _769  and  _770
REMARK  299  A    between atoms: _770  and  _771
REMARK  300  A    between atoms: _775  and  _777
REMARK  301  A    between atoms: _777  and  _778
REMARK  302  A    between atoms: _777  and  _780
REMARK  303  A    between atoms: _780  and  _781
REMARK                            x       y       z     vdW  Elec       q    Type
REMARK                         _______ _______ _______ _____ _____    ______ ____
ROOT
ATOM      1  CG  TYR A   1      -8.127  -8.197 -14.511  0.00  0.00    -0.020 A 
ATOM      2  CD2 TYR A   1      -7.100  -8.598 -13.650  0.00  0.00    -0.001 A 
ATOM      3  CE2 TYR A   1      -7.366  -8.958 -12.320  0.00  0.00    +0.036 A 
ATOM      4  CZ  TYR A   1      -8.671  -8.915 -11.842  0.00  0.00    +0.134 A 
ATOM      5  CE1 TYR A   1      -9.705  -8.518 -12.677  0.00  0.00    +0.036 A 
ATOM      6  CD1 TYR A   1      -9.430  -8.165 -14.004  0.00  0.00    -0.001 A 
ENDROOT
BRANCH   4   7
ATOM      7  OH  TYR A   1      -8.947  -9.277 -10.537  0.00  0.00    -0.506 OA
ATOM      8  HH  TYR A   1      -9.361  -8.512 -10.064  0.00  0.00    +0.292 HD
ENDBRANCH   4   7
BRANCH   1   9
ATOM      9  CB  TYR A   1      -7.847  -7.767 -15.947  0.00  0.00    +0.051 C 
BRANCH   9  10
ATOM     10  CA  TYR A   1      -6.636  -8.421 -16.639  0.00  0.00    +0.137 C 
BRANCH  10  11
ATOM     11  N   TYR A   1      -6.840  -8.446 -18.073  0.00  0.00    -0.239 NA
ATOM     12  H   TYR A   1      -7.813  -8.393 -18.436  0.00  0.00    +0.142 HD
ENDBRANCH  10  11
BRANCH  10  13
ATOM     13  C   TYR A   1      -6.594  -9.928 -16.403  0.00  0.00    +0.224 C 
ATOM     14  O   TYR A   1      -7.532 -10.644 -16.771  0.00  0.00    -0.287 OA
ENDBRANCH  10  13
ENDBRANCH   9  10
ENDBRANCH   1   9
TORSDOF 5
REMARK  Name = ../refined-set-2016/1y3p/1y3p_pocket.pdb
REMARK  303 active torsions:
REMARK  status: ('A' for Active; 'I' for Inactive)
REMARK    1  A    between atoms: _1  and  _3
REMARK    2  A    between atoms: _3  and  _4
REMARK    3  A    between atoms: _3  and  _6
REMARK    4  A    between atoms: _6  and  _7
REMARK    5  A    between atoms: _12  and  _14
REMARK    6  A    between atoms: _14  and  _15
REMARK    7  A    between atoms: _14  and  _17
REMARK    8  A    between atoms: _17  and  _18
REMARK    9  A    between atoms: _24  and  _26
REMARK   10  A    between atoms: _26  and  _27
REMARK   11  A    between atoms: _26  and  _29
REMARK   12  A    between atoms: _29  and  _30
REMARK   13  A    between atoms: _30  and  _31
REMARK   14  A    between atoms: _31  and  _32
REMARK   15  A    between atoms: _41  and  _43
REMARK   16  A    between atoms: _43  and  _44
REMARK   17  A    between atoms: _43  and  _46
REMARK   18  A    between atoms: _46  and  _47
REMARK   19  A    between atoms: _50  and  _52
REMARK   20  A    between atoms: _52  and  _53
REMARK   21  A    between atoms: _52  and  _55
REMARK   22  A    between atoms: _55  and  _56
REMARK   23  A    between atoms: _56  and  _57
REMARK   24  A    between atoms: _57  and  _58
REMARK   25  A    between atoms: _58  and  _59
REMARK   26  A    between atoms: _63  and  _65
REMARK   27  A    between atoms: _65  and  _66
REMARK   28  A    between atoms: _65  and  _68
REMARK   29  A    between atoms: _68  and  _69
REMARK   30  A    between atoms: _79  and  _81
REMARK   31  A    between atoms: _81  and  _82
REMARK   32  A    between atoms: _81  and  _84
REMARK   33  A    between atoms: _84  and  _85
REMARK   34  A    between atoms: _88  and  _90
REMARK   35  A    between atoms: _90  and  _91
REMARK   36  A    between atoms: _90  and  _93
REMARK   37  A    between atoms: _93  and  _94
REMARK   38  A    between atoms: _99  and  _101
REMARK   39  A    between atoms: _101  and  _102
REMARK   40  A    between atoms: _101  and  _104
REMARK   41  A    between atoms: _104  and  _105
REMARK   42  A    between atoms: _107  and  _109
REMARK   43  A    between atoms: _109  and  _110
REMARK   44  A    between atoms: _109  and  _112
REMARK   45  A    between atoms: _112  and  _113
REMARK   46  A    between atoms: _113  and  _114
REMARK   47  A    between atoms: _119  and  _121
REMARK   48  A    between atoms: _121  and  _122
REMARK   49  A    between atoms: _121  and  _124
REMARK   50  A    between atoms: _124  and  _125
REMARK   51  A    between atoms: _125  and  _126
REMARK   52  A    between atoms: _129  and  _131
REMARK   53  A    between atoms: _131  and  _132
REMARK   54  A    between atoms: _134  and  _136
REMARK   55  A    between atoms: _136  and  _137
REMARK   56  A    between atoms: _136  and  _139
REMARK   57  A    between atoms: _139  and  _140
REMARK   58  A    between atoms: _143  and  _145
REMARK   59  A    between atoms: _145  and  _146
REMARK   60  A    between atoms: _145  and  _148
REMARK   61  A    between atoms: _148  and  _149
REMARK   62  A    between atoms: _154  and  _156
REMARK   63  A    between atoms: _156  and  _157
REMARK   64  A    between atoms: _156  and  _159
REMARK   65  A    between atoms: _159  and  _160
REMARK   66  A    between atoms: _163  and  _165
REMARK   67  A    between atoms: _165  and  _166
REMARK   68  A    between atoms: _165  and  _168
REMARK   69  A    between atoms: _168  and  _169
REMARK   70  A    between atoms: _169  and  _170
REMARK   71  A    between atoms: _170  and  _171
REMARK   72  A    between atoms: _171  and  _172
REMARK   73  A    between atoms: _176  and  _178
REMARK   74  A    between atoms: _178  and  _179
REMARK   75  A    between atoms: _178  and  _181
REMARK   76  A    between atoms: _181  and  _182
REMARK   77  A    between atoms: _187  and  _188
REMARK   78  A    between atoms: _191  and  _192
REMARK   79  A    between atoms: _197  and  _199
REMARK   80  A    between atoms: _199  and  _200
REMARK   81  A    between atoms: _199  and  _202
REMARK   82  A    between atoms: _202  and  _203
REMARK   83  A    between atoms: _206  and  _208
REMARK   84  A    between atoms: _208  and  _209
REMARK   85  A    between atoms: _211  and  _213
REMARK   86  A    between atoms: _213  and  _214
REMARK   87  A    between atoms: _213  and  _216
REMARK   88  A    between atoms: _219  and  _221
REMARK   89  A    between atoms: _221  and  _222
REMARK   90  A    between atoms: _221  and  _224
REMARK   91  A    between atoms: _224  and  _225
REMARK   92  A    between atoms: _227  and  _229
REMARK   93  A    between atoms: _229  and  _230
REMARK   94  A    between atoms: _229  and  _232
REMARK   95  A    between atoms: _232  and  _233
REMARK   96  A    between atoms: _233  and  _234
REMARK   97  A    between atoms: _234  and  _235
REMARK   98  A    between atoms: _244  and  _246
REMARK   99  A    between atoms: _246  and  _247
REMARK  100  A    between atoms: _246  and  _249
REMARK  101  A    between atoms: _249  and  _250
REMARK  102  A    between atoms: _255  and  _257
REMARK  103  A    between atoms: _257  and  _258
REMARK  104  A    between atoms: _257  and  _260
REMARK  105  A    between atoms: _260  and  _261
REMARK  106  A    between atoms: _261  and  _262
REMARK  107  A    between atoms: _262  and  _263
REMARK  108  A    between atoms: _272  and  _274
REMARK  109  A    between atoms: _274  and  _275
REMARK  110  A    between atoms: _274  and  _277
REMARK  111  A    between atoms: _277  and  _278
REMARK  112  A    between atoms: _282  and  _283
REMARK  113  A    between atoms: _288  and  _290
REMARK  114  A    between atoms: _290  and  _291
REMARK  115  A    between atoms: _290  and  _293
REMARK  116  A    between atoms: _293  and  _294
REMARK  117  A    between atoms: _294  and  _295
REMARK  118  A    between atoms: _298  and  _300
REMARK  119  A    between atoms: _300  and  _301
REMARK  120  A    between atoms: _300  and  _303
REMARK  121  A    between atoms: _303  and  _304
REMARK  122  A    between atoms: _304  and  _305
REMARK  123  A    between atoms: _308  and  _310
REMARK  124  A    between atoms: _310  and  _311
REMARK  125  A    between atoms: _310  and  _313
REMARK  126  A    between atoms: _313  and  _314
REMARK  127  A    between atoms: _319  and  _321
REMARK  128  A    between atoms: _321  and  _322
REMARK  129  A    between atoms: _321  and  _324
REMARK  130  A    between atoms: _324  and  _325
REMARK  131  A    between atoms: _328  and  _330
REMARK  132  A    between atoms: _330  and  _331
REMARK  133  A    between atoms: _330  and  _333
REMARK  134  A    between atoms: _333  and  _334
REMARK  135  A    between atoms: _344  and  _346
REMARK  136  A    between atoms: _346  and  _347
REMARK  137  A    between atoms: _346  and  _349
REMARK  138  A    between atoms: _349  and  _350
REMARK  139  A    between atoms: _350  and  _351
REMARK  140  A    between atoms: _353  and  _355
REMARK  141  A    between atoms: _355  and  _356
REMARK  142  A    between atoms: _355  and  _358
REMARK  143  A    between atoms: _358  and  _359
REMARK  144  A    between atoms: _359  and  _360
REMARK  145  A    between atoms: _360  and  _361
REMARK  146  A    between atoms: _361  and  _362
REMARK  147  A    between atoms: _366  and  _368
REMARK  148  A    between atoms: _368  and  _369
REMARK  149  A    between atoms: _372  and  _374
REMARK  150  A    between atoms: _374  and  _375
REMARK  151  A    between atoms: _374  and  _377
REMARK  152  A    between atoms: _377  and  _378
REMARK  153  A    between atoms: _378  and  _379
REMARK  154  A    between atoms: _379  and  _380
REMARK  155  A    between atoms: _389  and  _391
REMARK  156  A    between atoms: _391  and  _392
REMARK  157  A    between atoms: _391  and  _394
REMARK  158  A    between atoms: _394  and  _395
REMARK  159  A    between atoms: _398  and  _400
REMARK  160  A    between atoms: _400  and  _401
REMARK  161  A    between atoms: _400  and  _403
REMARK  162  A    between atoms: _403  and  _404
REMARK  163  A    between atoms: _414  and  _416
REMARK  164  A    between atoms: _416  and  _417
REMARK  165  A    between atoms: _416  and  _419
REMARK  166  A    between atoms: _419  and  _420
REMARK  167  A    between atoms: _426  and  _428
REMARK  168  A    between atoms: _428  and  _429
REMARK  169  A    between atoms: _432  and  _434
REMARK  170  A    between atoms: _434  and  _435
REMARK  171  A    between atoms: _434  and  _437
REMARK  172  A    between atoms: _437  and  _438
REMARK  173  A    between atoms: _440  and  _442
REMARK  174  A    between atoms: _442  and  _443
REMARK  175  A    between atoms: _442  and  _445
REMARK  176  A    between atoms: _445  and  _446
REMARK  177  A    between atoms: _449  and  _451
REMARK  178  A    between atoms: _451  and  _452
REMARK  179  A    between atoms: _455  and  _457
REMARK  180  A    between atoms: _457  and  _458
REMARK  181  A    between atoms: _457  and  _460
REMARK  182  A    between atoms: _460  and  _461
REMARK  183  A    between atoms: _464  and  _466
REMARK  184  A    between atoms: _466  and  _467
REMARK  185  A    between atoms: _466  and  _469
REMARK  186  A    between atoms: _469  and  _470
REMARK  187  A    between atoms: _473  and  _475
REMARK  188  A    between atoms: _475  and  _476
REMARK  189  A    between atoms: _475  and  _478
REMARK  190  A    between atoms: _478  and  _479
REMARK  191  A    between atoms: _479  and  _480
REMARK  192  A    between atoms: _480  and  _481
REMARK  193  A    between atoms: _490  and  _492
REMARK  194  A    between atoms: _492  and  _493
REMARK  195  A    between atoms: _492  and  _495
REMARK  196  A    between atoms: _495  and  _496
REMARK  197  A    between atoms: _496  and  _497
REMARK  198  A    between atoms: _502  and  _504
REMARK  199  A    between atoms: _504  and  _505
REMARK  200  A    between atoms: _504  and  _507
REMARK  201  A    between atoms: _507  and  _508
REMARK  202  A    between atoms: _508  and  _509
REMARK  203  A    between atoms: _509  and  _510
REMARK  204  A    between atoms: _520  and  _521
REMARK  205  A    between atoms: _526  and  _528
REMARK  206  A    between atoms: _528  and  _529
REMARK  207  A    between atoms: _528  and  _531
REMARK  208  A    between atoms: _531  and  _532
REMARK  209  A    between atoms: _535  and  _537
REMARK  210  A    between atoms: _537  and  _538
REMARK  211  A    between atoms: _537  and  _540
REMARK  212  A    between atoms: _540  and  _541
REMARK  213  A    between atoms: _547  and  _548
REMARK  214  A    between atoms: _553  and  _555
REMARK  215  A    between atoms: _555  and  _556
REMARK  216  A    between atoms: _555  and  _558
REMARK  217  A    between atoms: _561  and  _563
REMARK  218  A    between atoms: _563  and  _564
REMARK  219  A    between atoms: _563  and  _566
REMARK  220  A    between atoms: _566  and  _567
REMARK  221  A    between atoms: _572  and  _574
REMARK  222  A    between atoms: _574  and  _575
REMARK  223  A    between atoms: _574  and  _577
REMARK  224  A    between atoms: _577  and  _578
REMARK  225  A    between atoms: _583  and  _585
REMARK  226  A    between atoms: _585  and  _586
REMARK  227  A    between atoms: _585  and  _588
REMARK  228  A    between atoms: _588  and  _589
REMARK  229  A    between atoms: _589  and  _590
REMARK  230  A    between atoms: _592  and  _594
REMARK  231  A    between atoms: _594  and  _595
REMARK  232  A    between atoms: _594  and  _597
REMARK  233  A    between atoms: _597  and  _598
REMARK  234  A    between atoms: _603  and  _604
REMARK  235  A    between atoms: _606  and  _608
REMARK  236  A    between atoms: _608  and  _609
REMARK  237  A    between atoms: _608  and  _611
REMARK  238  A    between atoms: _611  and  _612
REMARK  239  A    between atoms: _612  and  _613
REMARK  240  A    between atoms: _618  and  _620
REMARK  241  A    between atoms: _620  and  _621
REMARK  242  A    between atoms: _620  and  _623
REMARK  243  A    between atoms: _623  and  _624
REMARK  244  A    between atoms: _628  and  _629
REMARK  245  A    between atoms: _634  and  _636
REMARK  246  A    between atoms: _636  and  _637
REMARK  247  A    between atoms: _636  and  _639
REMARK  248  A    between atoms: _639  and  _640
REMARK  249  A    between atoms: _646  and  _648
REMARK  250  A    between atoms: _648  and  _649
REMARK  251  A    between atoms: _648  and  _651
REMARK  252  A    between atoms: _651  and  _652
REMARK  253  A    between atoms: _652  and  _653
REMARK  254  A    between atoms: _658  and  _660
REMARK  255  A    between atoms: _660  and  _661
REMARK  256  A    between atoms: _660  and  _663
REMARK  257  A    between atoms: _663  and  _664
REMARK  258  A    between atoms: _667  and  _669
REMARK  259  A    between atoms: _669  and  _670
REMARK  260  A    between atoms: _669  and  _672
REMARK  261  A    between atoms: _672  and  _673
REMARK  262  A    between atoms: _678  and  _679
REMARK  263  A    between atoms: _681  and  _683
REMARK  264  A    between atoms: _683  and  _684
REMARK  265  A    between atoms: _683  and  _686
REMARK  266  A    between atoms: _686  and  _687
REMARK  267  A    between atoms: _692  and  _693
REMARK  268  A    between atoms: _695  and  _697
REMARK  269  A    between atoms: _697  and  _698
REMARK  270  A    between atoms: _697  and  _700
REMARK  271  A    between atoms: _700  and  _701
REMARK  272  A    between atoms: _701  and  _702
REMARK  273  A    between atoms: _705  and  _707
REMARK  274  A    between atoms: _707  and  _708
REMARK  275  A    between atoms: _707  and  _710
REMARK  276  A    between atoms: _710  and  _711
REMARK  277  A    between atoms: _711  and  _712
REMARK  278  A    between atoms: _712  and  _713
REMARK  279  A    between atoms: _722  and  _724
REMARK  280  A    between atoms: _724  and  _725
REMARK  281  A    between atoms: _724  and  _727
REMARK  282  A    between atoms: _727  and  _728
REMARK  283  A    between atoms: _738  and  _740
REMARK  284  A    between atoms: _740  and  _741
REMARK  285  A    between atoms: _740  and  _743
REMARK  286  A    between atoms: _743  and  _744
REMARK  287  A    between atoms: _747  and  _749
REMARK  288  A    between atoms: _749  and  _750
REMARK  289  A    between atoms: _753  and  _755
REMARK  290  A    between atoms: _755  and  _756
REMARK  291  A    between atoms: _755  and  _758
REMARK  292  A    between atoms: _758  and  _759
REMARK  293  A    between atoms: _762  and  _764
REMARK  294  A    between atoms: _764  and  _765
REMARK  295  A    between atoms: _764  and  _767
REMARK  296  A    between atoms: _767  and  _768
REMARK  297  A    between atoms: _768  and  _769
REMARK  298  A    between atoms: _769  and  _770
REMARK  299  A    between atoms: _770  and  _771
REMARK  300  A    between atoms: _775  and  _777
REMARK  301  A    between atoms: _777  and  _778
REMARK  302  A    between atoms: _777  and  _780
REMARK  303  A    between atoms: _780  and  _781
REMARK                            x       y       z     vdW  Elec       q    Type
REMARK                         _______ _______ _______ _____ _____    ______ ____
ROOT
ATOM      1  CA  ASP A   2      -4.684 -15.186  -9.875  0.00  0.00    +0.160 C 
ENDROOT
BRANCH   1   3
ATOM      2  C   PRO A   1      -5.732 -13.998 -11.720  0.00  0.00    +0.239 C 
ATOM      3  N   ASP A   2      -5.532 -14.127 -10.413  0.00  0.00    -0.297 N 
ATOM      4  H   ASP A   2      -5.989 -13.459  -9.760  0.00  0.00    +0.150 HD
ATOM      5  O   PRO A   1      -5.191 -14.727 -12.554  0.00  0.00    -0.274 OA
BRANCH   2   7
ATOM      6  N   PRO A   1      -6.520 -12.573 -13.585  0.00  0.00    -0.210 NA
ATOM      7  CA  PRO A   1      -6.669 -12.871 -12.158  0.00  0.00    +0.149 C 
ATOM      8  CB  PRO A   1      -8.134 -13.279 -12.048  0.00  0.00    +0.028 C 
ATOM      9  CG  PRO A   1      -8.784 -12.478 -13.142  0.00  0.00    +0.021 C 
ATOM     10  CD  PRO A   1      -7.820 -12.662 -14.276  0.00  0.00    +0.089 C 
ENDBRANCH   2   7
ENDBRANCH   1   3
BRANCH   1  11
ATOM     11  C   ASP A   2      -5.468 -15.772  -8.708  0.00  0.00    +0.241 C 
ATOM     12  O   ASP A   2      -5.973 -15.036  -7.863  0.00  0.00    -0.273 OA
ATOM     13  N   GLY A   3      -5.591 -17.096  -8.682  0.00  0.00    -0.296 N 
ATOM     14  H   GLY A   3      -5.146 -17.666  -9.429  0.00  0.00    +0.150 HD
BRANCH  13  15
ATOM     15  CA  GLY A   3      -6.337 -17.758  -7.627  0.00  0.00    +0.163 C 
BRANCH  15  16
ATOM     16  C   GLY A   3      -7.261 -18.803  -8.229  0.00  0.00    +0.229 C 
ATOM     17  O   GLY A   3      -7.296 -18.954  -9.447  0.00  0.00    -0.286 OA
ENDBRANCH  15  16
ENDBRANCH  13  15
ENDBRANCH   1  11
BRANCH   1  18
ATOM     18  CB  ASP A   2      -3.343 -14.627  -9.387  0.00  0.00    +0.143 C 
BRANCH  18  19
ATOM     19  CG  ASP A   2      -2.268 -15.701  -9.272  0.00  0.00    +0.367 C 
ATOM     20  OD2 ASP A   2      -1.325 -15.535  -8.469  0.00  0.00    -0.246 OA
ATOM     21  OD1 ASP A   2      -2.358 -16.708 -10.002  0.00  0.00    -0.246 OA
ENDBRANCH  18  19
ENDBRANCH   1  18
TORSDOF 7
REMARK  Name = ../refined-set-2016/1y3p/1y3p_pocket.pdb
REMARK  303 active torsions:
REMARK  status: ('A' for Active; 'I' for Inactive)
REMARK    1  A    between atoms: _1  and  _3
REMARK    2  A    between atoms: _3  and  _4
REMARK    3  A    between atoms: _3  and  _6
REMARK    4  A    between atoms: _6  and  _7
REMARK    5  A    between atoms: _12  and  _14
REMARK    6  A    between atoms: _14  and  _15
REMARK    7  A    between atoms: _14  and  _17
REMARK    8  A    between atoms: _17  and  _18
REMARK    9  A    between atoms: _24  and  _26
REMARK   10  A    between atoms: _26  and  _27
REMARK   11  A    between atoms: _26  and  _29
REMARK   12  A    between atoms: _29  and  _30
REMARK   13  A    between atoms: _30  and  _31
REMARK   14  A    between atoms: _31  and  _32
REMARK   15  A    between atoms: _41  and  _43
REMARK   16  A    between atoms: _43  and  _44
REMARK   17  A    between atoms: _43  and  _46
REMARK   18  A    between atoms: _46  and  _47
REMARK   19  A    between atoms: _50  and  _52
REMARK   20  A    between atoms: _52  and  _53
REMARK   21  A    between atoms: _52  and  _55
REMARK   22  A    between atoms: _55  and  _56
REMARK   23  A    between atoms: _56  and  _57
REMARK   24  A    between atoms: _57  and  _58
REMARK   25  A    between atoms: _58  and  _59
REMARK   26  A    between atoms: _63  and  _65
REMARK   27  A    between atoms: _65  and  _66
REMARK   28  A    between atoms: _65  and  _68
REMARK   29  A    between atoms: _68  and  _69
REMARK   30  A    between atoms: _79  and  _81
REMARK   31  A    between atoms: _81  and  _82
REMARK   32  A    between atoms: _81  and  _84
REMARK   33  A    between atoms: _84  and  _85
REMARK   34  A    between atoms: _88  and  _90
REMARK   35  A    between atoms: _90  and  _91
REMARK   36  A    between atoms: _90  and  _93
REMARK   37  A    between atoms: _93  and  _94
REMARK   38  A    between atoms: _99  and  _101
REMARK   39  A    between atoms: _101  and  _102
REMARK   40  A    between atoms: _101  and  _104
REMARK   41  A    between atoms: _104  and  _105
REMARK   42  A    between atoms: _107  and  _109
REMARK   43  A    between atoms: _109  and  _110
REMARK   44  A    between atoms: _109  and  _112
REMARK   45  A    between atoms: _112  and  _113
REMARK   46  A    between atoms: _113  and  _114
REMARK   47  A    between atoms: _119  and  _121
REMARK   48  A    between atoms: _121  and  _122
REMARK   49  A    between atoms: _121  and  _124
REMARK   50  A    between atoms: _124  and  _125
REMARK   51  A    between atoms: _125  and  _126
REMARK   52  A    between atoms: _129  and  _131
REMARK   53  A    between atoms: _131  and  _132
REMARK   54  A    between atoms: _134  and  _136
REMARK   55  A    between atoms: _136  and  _137
REMARK   56  A    between atoms: _136  and  _139
REMARK   57  A    between atoms: _139  and  _140
REMARK   58  A    between atoms: _143  and  _145
REMARK   59  A    between atoms: _145  and  _146
REMARK   60  A    between atoms: _145  and  _148
REMARK   61  A    between atoms: _148  and  _149
REMARK   62  A    between atoms: _154  and  _156
REMARK   63  A    between atoms: _156  and  _157
REMARK   64  A    between atoms: _156  and  _159
REMARK   65  A    between atoms: _159  and  _160
REMARK   66  A    between atoms: _163  and  _165
REMARK   67  A    between atoms: _165  and  _166
REMARK   68  A    between atoms: _165  and  _168
REMARK   69  A    between atoms: _168  and  _169
REMARK   70  A    between atoms: _169  and  _170
REMARK   71  A    between atoms: _170  and  _171
REMARK   72  A    between atoms: _171  and  _172
REMARK   73  A    between atoms: _176  and  _178
REMARK   74  A    between atoms: _178  and  _179
REMARK   75  A    between atoms: _178  and  _181
REMARK   76  A    between atoms: _181  and  _182
REMARK   77  A    between atoms: _187  and  _188
REMARK   78  A    between atoms: _191  and  _192
REMARK   79  A    between atoms: _197  and  _199
REMARK   80  A    between atoms: _199  and  _200
REMARK   81  A    between atoms: _199  and  _202
REMARK   82  A    between atoms: _202  and  _203
REMARK   83  A    between atoms: _206  and  _208
REMARK   84  A    between atoms: _208  and  _209
REMARK   85  A    between atoms: _211  and  _213
REMARK   86  A    between atoms: _213  and  _214
REMARK   87  A    between atoms: _213  and  _216
REMARK   88  A    between atoms: _219  and  _221
REMARK   89  A    between atoms: _221  and  _222
REMARK   90  A    between atoms: _221  and  _224
REMARK   91  A    between atoms: _224  and  _225
REMARK   92  A    between atoms: _227  and  _229
REMARK   93  A    between atoms: _229  and  _230
REMARK   94  A    between atoms: _229  and  _232
REMARK   95  A    between atoms: _232  and  _233
REMARK   96  A    between atoms: _233  and  _234
REMARK   97  A    between atoms: _234  and  _235
REMARK   98  A    between atoms: _244  and  _246
REMARK   99  A    between atoms: _246  and  _247
REMARK  100  A    between atoms: _246  and  _249
REMARK  101  A    between atoms: _249  and  _250
REMARK  102  A    between atoms: _255  and  _257
REMARK  103  A    between atoms: _257  and  _258
REMARK  104  A    between atoms: _257  and  _260
REMARK  105  A    between atoms: _260  and  _261
REMARK  106  A    between atoms: _261  and  _262
REMARK  107  A    between atoms: _262  and  _263
REMARK  108  A    between atoms: _272  and  _274
REMARK  109  A    between atoms: _274  and  _275
REMARK  110  A    between atoms: _274  and  _277
REMARK  111  A    between atoms: _277  and  _278
REMARK  112  A    between atoms: _282  and  _283
REMARK  113  A    between atoms: _288  and  _290
REMARK  114  A    between atoms: _290  and  _291
REMARK  115  A    between atoms: _290  and  _293
REMARK  116  A    between atoms: _293  and  _294
REMARK  117  A    between atoms: _294  and  _295
REMARK  118  A    between atoms: _298  and  _300
REMARK  119  A    between atoms: _300  and  _301
REMARK  120  A    between atoms: _300  and  _303
REMARK  121  A    between atoms: _303  and  _304
REMARK  122  A    between atoms: _304  and  _305
REMARK  123  A    between atoms: _308  and  _310
REMARK  124  A    between atoms: _310  and  _311
REMARK  125  A    between atoms: _310  and  _313
REMARK  126  A    between atoms: _313  and  _314
REMARK  127  A    between atoms: _319  and  _321
REMARK  128  A    between atoms: _321  and  _322
REMARK  129  A    between atoms: _321  and  _324
REMARK  130  A    between atoms: _324  and  _325
REMARK  131  A    between atoms: _328  and  _330
REMARK  132  A    between atoms: _330  and  _331
REMARK  133  A    between atoms: _330  and  _333
REMARK  134  A    between atoms: _333  and  _334
REMARK  135  A    between atoms: _344  and  _346
REMARK  136  A    between atoms: _346  and  _347
REMARK  137  A    between atoms: _346  and  _349
REMARK  138  A    between atoms: _349  and  _350
REMARK  139  A    between atoms: _350  and  _351
REMARK  140  A    between atoms: _353  and  _355
REMARK  141  A    between atoms: _355  and  _356
REMARK  142  A    between atoms: _355  and  _358
REMARK  143  A    between atoms: _358  and  _359
REMARK  144  A    between atoms: _359  and  _360
REMARK  145  A    between atoms: _360  and  _361
REMARK  146  A    between atoms: _361  and  _362
REMARK  147  A    between atoms: _366  and  _368
REMARK  148  A    between atoms: _368  and  _369
REMARK  149  A    between atoms: _372  and  _374
REMARK  150  A    between atoms: _374  and  _375
REMARK  151  A    between atoms: _374  and  _377
REMARK  152  A    between atoms: _377  and  _378
REMARK  153  A    between atoms: _378  and  _379
REMARK  154  A    between atoms: _379  and  _380
REMARK  155  A    between atoms: _389  and  _391
REMARK  156  A    between atoms: _391  and  _392
REMARK  157  A    between atoms: _391  and  _394
REMARK  158  A    between atoms: _394  and  _395
REMARK  159  A    between atoms: _398  and  _400
REMARK  160  A    between atoms: _400  and  _401
REMARK  161  A    between atoms: _400  and  _403
REMARK  162  A    between atoms: _403  and  _404
REMARK  163  A    between atoms: _414  and  _416
REMARK  164  A    between atoms: _416  and  _417
REMARK  165  A    between atoms: _416  and  _419
REMARK  166  A    between atoms: _419  and  _420
REMARK  167  A    between atoms: _426  and  _428
REMARK  168  A    between atoms: _428  and  _429
REMARK  169  A    between atoms: _432  and  _434
REMARK  170  A    between atoms: _434  and  _435
REMARK  171  A    between atoms: _434  and  _437
REMARK  172  A    between atoms: _437  and  _438
REMARK  173  A    between atoms: _440  and  _442
REMARK  174  A    between atoms: _442  and  _443
REMARK  175  A    between atoms: _442  and  _445
REMARK  176  A    between atoms: _445  and  _446
REMARK  177  A    between atoms: _449  and  _451
REMARK  178  A    between atoms: _451  and  _452
REMARK  179  A    between atoms: _455  and  _457
REMARK  180  A    between atoms: _457  and  _458
REMARK  181  A    between atoms: _457  and  _460
REMARK  182  A    between atoms: _460  and  _461
REMARK  183  A    between atoms: _464  and  _466
REMARK  184  A    between atoms: _466  and  _467
REMARK  185  A    between atoms: _466  and  _469
REMARK  186  A    between atoms: _469  and  _470
REMARK  187  A    between atoms: _473  and  _475
REMARK  188  A    between atoms: _475  and  _476
REMARK  189  A    between atoms: _475  and  _478
REMARK  190  A    between atoms: _478  and  _479
REMARK  191  A    between atoms: _479  and  _480
REMARK  192  A    between atoms: _480  and  _481
REMARK  193  A    between atoms: _490  and  _492
REMARK  194  A    between atoms: _492  and  _493
REMARK  195  A    between atoms: _492  and  _495
REMARK  196  A    between atoms: _495  and  _496
REMARK  197  A    between atoms: _496  and  _497
REMARK  198  A    between atoms: _502  and  _504
REMARK  199  A    between atoms: _504  and  _505
REMARK  200  A    between atoms: _504  and  _507
REMARK  201  A    between atoms: _507  and  _508
REMARK  202  A    between atoms: _508  and  _509
REMARK  203  A    between atoms: _509  and  _510
REMARK  204  A    between atoms: _520  and  _521
REMARK  205  A    between atoms: _526  and  _528
REMARK  206  A    between atoms: _528  and  _529
REMARK  207  A    between atoms: _528  and  _531
REMARK  208  A    between atoms: _531  and  _532
REMARK  209  A    between atoms: _535  and  _537
REMARK  210  A    between atoms: _537  and  _538
REMARK  211  A    between atoms: _537  and  _540
REMARK  212  A    between atoms: _540  and  _541
REMARK  213  A    between atoms: _547  and  _548
REMARK  214  A    between atoms: _553  and  _555
REMARK  215  A    between atoms: _555  and  _556
REMARK  216  A    between atoms: _555  and  _558
REMARK  217  A    between atoms: _561  and  _563
REMARK  218  A    between atoms: _563  and  _564
REMARK  219  A    between atoms: _563  and  _566
REMARK  220  A    between atoms: _566  and  _567
REMARK  221  A    between atoms: _572  and  _574
REMARK  222  A    between atoms: _574  and  _575
REMARK  223  A    between atoms: _574  and  _577
REMARK  224  A    between atoms: _577  and  _578
REMARK  225  A    between atoms: _583  and  _585
REMARK  226  A    between atoms: _585  and  _586
REMARK  227  A    between atoms: _585  and  _588
REMARK  228  A    between atoms: _588  and  _589
REMARK  229  A    between atoms: _589  and  _590
REMARK  230  A    between atoms: _592  and  _594
REMARK  231  A    between atoms: _594  and  _595
REMARK  232  A    between atoms: _594  and  _597
REMARK  233  A    between atoms: _597  and  _598
REMARK  234  A    between atoms: _603  and  _604
REMARK  235  A    between atoms: _606  and  _608
REMARK  236  A    between atoms: _608  and  _609
REMARK  237  A    between atoms: _608  and  _611
REMARK  238  A    between atoms: _611  and  _612
REMARK  239  A    between atoms: _612  and  _613
REMARK  240  A    between atoms: _618  and  _620
REMARK  241  A    between atoms: _620  and  _621
REMARK  242  A    between atoms: _620  and  _623
REMARK  243  A    between atoms: _623  and  _624
REMARK  244  A    between atoms: _628  and  _629
REMARK  245  A    between atoms: _634  and  _636
REMARK  246  A    between atoms: _636  and  _637
REMARK  247  A    between atoms: _636  and  _639
REMARK  248  A    between atoms: _639  and  _640
REMARK  249  A    between atoms: _646  and  _648
REMARK  250  A    between atoms: _648  and  _649
REMARK  251  A    between atoms: _648  and  _651
REMARK  252  A    between atoms: _651  and  _652
REMARK  253  A    between atoms: _652  and  _653
REMARK  254  A    between atoms: _658  and  _660
REMARK  255  A    between atoms: _660  and  _661
REMARK  256  A    between atoms: _660  and  _663
REMARK  257  A    between atoms: _663  and  _664
REMARK  258  A    between atoms: _667  and  _669
REMARK  259  A    between atoms: _669  and  _670
REMARK  260  A    between atoms: _669  and  _672
REMARK  261  A    between atoms: _672  and  _673
REMARK  262  A    between atoms: _678  and  _679
REMARK  263  A    between atoms: _681  and  _683
REMARK  264  A    between atoms: _683  and  _684
REMARK  265  A    between atoms: _683  and  _686
REMARK  266  A    between atoms: _686  and  _687
REMARK  267  A    between atoms: _692  and  _693
REMARK  268  A    between atoms: _695  and  _697
REMARK  269  A    between atoms: _697  and  _698
REMARK  270  A    between atoms: _697  and  _700
REMARK  271  A    between atoms: _700  and  _701
REMARK  272  A    between atoms: _701  and  _702
REMARK  273  A    between atoms: _705  and  _707
REMARK  274  A    between atoms: _707  and  _708
REMARK  275  A    between atoms: _707  and  _710
REMARK  276  A    between atoms: _710  and  _711
REMARK  277  A    between atoms: _711  and  _712
REMARK  278  A    between atoms: _712  and  _713
REMARK  279  A    between atoms: _722  and  _724
REMARK  280  A    between atoms: _724  and  _725
REMARK  281  A    between atoms: _724  and  _727
REMARK  282  A    between atoms: _727  and  _728
REMARK  283  A    between atoms: _738  and  _740
REMARK  284  A    between atoms: _740  and  _741
REMARK  285  A    between atoms: _740  and  _743
REMARK  286  A    between atoms: _743  and  _744
REMARK  287  A    between atoms: _747  and  _749
REMARK  288  A    between atoms: _749  and  _750
REMARK  289  A    between atoms: _753  and  _755
REMARK  290  A    between atoms: _755  and  _756
REMARK  291  A    between atoms: _755  and  _758
REMARK  292  A    between atoms: _758  and  _759
REMARK  293  A    between atoms: _762  and  _764
REMARK  294  A    between atoms: _764  and  _765
REMARK  295  A    between atoms: _764  and  _767
REMARK  296  A    between atoms: _767  and  _768
REMARK  297  A    between atoms: _768  and  _769
REMARK  298  A    between atoms: _769  and  _770
REMARK  299  A    between atoms: _770  and  _771
REMARK  300  A    between atoms: _775  and  _777
REMARK  301  A    between atoms: _777  and  _778
REMARK  302  A    between atoms: _777  and  _780
REMARK  303  A    between atoms: _780  and  _781
REMARK                            x       y       z     vdW  Elec       q    Type
REMARK                         _______ _______ _______ _____ _____    ______ ____
ROOT
ATOM      1  C   SER A   2     -15.013 -16.340  -4.804  0.00  0.00    +0.243 C 
ATOM      2  O   SER A   2     -14.642 -15.889  -3.718  0.00  0.00    -0.273 OA
ATOM      3  N   ARG A   3     -16.281 -16.647  -5.073  0.00  0.00    -0.298 N 
ATOM      4  H   ARG A   3     -16.515 -17.043  -6.006  0.00  0.00    +0.150 HD
ENDROOT
BRANCH   1   5
ATOM      5  CA  SER A   2     -14.002 -16.601  -5.912  0.00  0.00    +0.178 C 
BRANCH   5   8
ATOM      6  C   VAL A   1     -12.416 -18.432  -5.952  0.00  0.00    +0.238 C 
ATOM      7  O   VAL A   1     -11.459 -17.657  -5.907  0.00  0.00    -0.274 OA
ATOM      8  N   SER A   2     -13.676 -18.019  -5.964  0.00  0.00    -0.295 N 
ATOM      9  H   SER A   2     -14.444 -18.719  -6.011  0.00  0.00    +0.150 HD
BRANCH   6  10
ATOM     10  CA  VAL A   1     -12.202 -19.940  -6.007  0.00  0.00    +0.145 C 
BRANCH  10  11
ATOM     11  CB  VAL A   1     -12.627 -20.550  -4.653  0.00  0.00    +0.025 C 
ATOM     12  CG2 VAL A   1     -11.788 -19.964  -3.531  0.00  0.00    +0.002 C 
ATOM     13  CG1 VAL A   1     -12.484 -22.066  -4.698  0.00  0.00    +0.002 C 
ENDBRANCH  10  11
BRANCH  10  14
ATOM     14  N   VAL A   1     -10.811 -20.232  -6.326  0.00  0.00    -0.238 NA
ATOM     15  H   VAL A   1     -10.134 -20.425  -5.560  0.00  0.00    +0.142 HD
ENDBRANCH  10  14
ENDBRANCH   6  10
ENDBRANCH   5   8
BRANCH   5  16
ATOM     16  CB  SER A   2     -14.544 -16.136  -7.268  0.00  0.00    +0.166 C 
BRANCH  16  17
ATOM     17  OG  SER A   2     -15.648 -16.925  -7.678  0.00  0.00    -0.380 OA
ATOM     18  H   SER A   2     -15.976 -16.602  -8.555  0.00  0.00    +0.211 HD
ENDBRANCH  16  17
ENDBRANCH   5  16
ENDBRANCH   1   5
BRANCH   3  19
ATOM     19  CA  ARG A   3     -17.355 -16.446  -4.100  0.00  0.00    +0.137 C 
BRANCH  19  20
ATOM     20  C   ARG A   3     -17.785 -17.710  -3.341  0.00  0.00    +0.227 C 
ATOM     21  O   ARG A   3     -17.490 -18.837  -3.742  0.00  0.00    -0.286 OA
ENDBRANCH  19  20
BRANCH  19  22
ATOM     22  CB  ARG A   3     -18.593 -15.869  -4.793  0.00  0.00    +0.031 C 
BRANCH  22  23
ATOM     23  CG  ARG A   3     -18.420 -14.492  -5.420  0.00  0.00    +0.045 C 
BRANCH  23  24
ATOM     24  CD  ARG A   3     -19.736 -14.049  -6.049  0.00  0.00    +0.174 C 
BRANCH  24  25
ATOM     25  NE  ARG A   3     -19.712 -12.667  -6.518  0.00  0.00    -0.265 N 
ATOM     26  HE  ARG A   3     -19.982 -11.924  -5.842  0.00  0.00    +0.259 HD
ATOM     27  CZ  ARG A   3     -19.371 -12.287  -7.745  0.00  0.00    +0.342 C 
ATOM     28  NH2 ARG A   3     -19.406 -11.002  -8.066  0.00  0.00    -0.292 N 
ATOM     29 HH21 ARG A   3     -19.699 -10.297  -7.360  0.00  0.00    +0.255 HD
ATOM     30 HH22 ARG A   3     -19.140 -10.698  -9.024  0.00  0.00    +0.255 HD
ATOM     31  NH1 ARG A   3     -19.015 -13.184  -8.653  0.00  0.00    -0.292 N 
ATOM     32 HH11 ARG A   3     -19.001 -14.195  -8.408  0.00  0.00    +0.255 HD
ATOM     33 HH12 ARG A   3     -18.750 -12.877  -9.611  0.00  0.00    +0.255 HD
ENDBRANCH  24  25
ENDBRANCH  23  24
ENDBRANCH  22  23
ENDBRANCH  19  22
ENDBRANCH   3  19
TORSDOF 13
REMARK  Name = ../refined-set-2016/1y3p/1y3p_pocket.pdb
REMARK  303 active torsions:
REMARK  status: ('A' for Active; 'I' for Inactive)
REMARK    1  A    between atoms: _1  and  _3
REMARK    2  A    between atoms: _3  and  _4
REMARK    3  A    between atoms: _3  and  _6
REMARK    4  A    between atoms: _6  and  _7
REMARK    5  A    between atoms: _12  and  _14
REMARK    6  A    between atoms: _14  and  _15
REMARK    7  A    between atoms: _14  and  _17
REMARK    8  A    between atoms: _17  and  _18
REMARK    9  A    between atoms: _24  and  _26
REMARK   10  A    between atoms: _26  and  _27
REMARK   11  A    between atoms: _26  and  _29
REMARK   12  A    between atoms: _29  and  _30
REMARK   13  A    between atoms: _30  and  _31
REMARK   14  A    between atoms: _31  and  _32
REMARK   15  A    between atoms: _41  and  _43
REMARK   16  A    between atoms: _43  and  _44
REMARK   17  A    between atoms: _43  and  _46
REMARK   18  A    between atoms: _46  and  _47
REMARK   19  A    between atoms: _50  and  _52
REMARK   20  A    between atoms: _52  and  _53
REMARK   21  A    between atoms: _52  and  _55
REMARK   22  A    between atoms: _55  and  _56
REMARK   23  A    between atoms: _56  and  _57
REMARK   24  A    between atoms: _57  and  _58
REMARK   25  A    between atoms: _58  and  _59
REMARK   26  A    between atoms: _63  and  _65
REMARK   27  A    between atoms: _65  and  _66
REMARK   28  A    between atoms: _65  and  _68
REMARK   29  A    between atoms: _68  and  _69
REMARK   30  A    between atoms: _79  and  _81
REMARK   31  A    between atoms: _81  and  _82
REMARK   32  A    between atoms: _81  and  _84
REMARK   33  A    between atoms: _84  and  _85
REMARK   34  A    between atoms: _88  and  _90
REMARK   35  A    between atoms: _90  and  _91
REMARK   36  A    between atoms: _90  and  _93
REMARK   37  A    between atoms: _93  and  _94
REMARK   38  A    between atoms: _99  and  _101
REMARK   39  A    between atoms: _101  and  _102
REMARK   40  A    between atoms: _101  and  _104
REMARK   41  A    between atoms: _104  and  _105
REMARK   42  A    between atoms: _107  and  _109
REMARK   43  A    between atoms: _109  and  _110
REMARK   44  A    between atoms: _109  and  _112
REMARK   45  A    between atoms: _112  and  _113
REMARK   46  A    between atoms: _113  and  _114
REMARK   47  A    between atoms: _119  and  _121
REMARK   48  A    between atoms: _121  and  _122
REMARK   49  A    between atoms: _121  and  _124
REMARK   50  A    between atoms: _124  and  _125
REMARK   51  A    between atoms: _125  and  _126
REMARK   52  A    between atoms: _129  and  _131
REMARK   53  A    between atoms: _131  and  _132
REMARK   54  A    between atoms: _134  and  _136
REMARK   55  A    between atoms: _136  and  _137
REMARK   56  A    between atoms: _136  and  _139
REMARK   57  A    between atoms: _139  and  _140
REMARK   58  A    between atoms: _143  and  _145
REMARK   59  A    between atoms: _145  and  _146
REMARK   60  A    between atoms: _145  and  _148
REMARK   61  A    between atoms: _148  and  _149
REMARK   62  A    between atoms: _154  and  _156
REMARK   63  A    between atoms: _156  and  _157
REMARK   64  A    between atoms: _156  and  _159
REMARK   65  A    between atoms: _159  and  _160
REMARK   66  A    between atoms: _163  and  _165
REMARK   67  A    between atoms: _165  and  _166
REMARK   68  A    between atoms: _165  and  _168
REMARK   69  A    between atoms: _168  and  _169
REMARK   70  A    between atoms: _169  and  _170
REMARK   71  A    between atoms: _170  and  _171
REMARK   72  A    between atoms: _171  and  _172
REMARK   73  A    between atoms: _176  and  _178
REMARK   74  A    between atoms: _178  and  _179
REMARK   75  A    between atoms: _178  and  _181
REMARK   76  A    between atoms: _181  and  _182
REMARK   77  A    between atoms: _187  and  _188
REMARK   78  A    between atoms: _191  and  _192
REMARK   79  A    between atoms: _197  and  _199
REMARK   80  A    between atoms: _199  and  _200
REMARK   81  A    between atoms: _199  and  _202
REMARK   82  A    between atoms: _202  and  _203
REMARK   83  A    between atoms: _206  and  _208
REMARK   84  A    between atoms: _208  and  _209
REMARK   85  A    between atoms: _211  and  _213
REMARK   86  A    between atoms: _213  and  _214
REMARK   87  A    between atoms: _213  and  _216
REMARK   88  A    between atoms: _219  and  _221
REMARK   89  A    between atoms: _221  and  _222
REMARK   90  A    between atoms: _221  and  _224
REMARK   91  A    between atoms: _224  and  _225
REMARK   92  A    between atoms: _227  and  _229
REMARK   93  A    between atoms: _229  and  _230
REMARK   94  A    between atoms: _229  and  _232
REMARK   95  A    between atoms: _232  and  _233
REMARK   96  A    between atoms: _233  and  _234
REMARK   97  A    between atoms: _234  and  _235
REMARK   98  A    between atoms: _244  and  _246
REMARK   99  A    between atoms: _246  and  _247
REMARK  100  A    between atoms: _246  and  _249
REMARK  101  A    between atoms: _249  and  _250
REMARK  102  A    between atoms: _255  and  _257
REMARK  103  A    between atoms: _257  and  _258
REMARK  104  A    between atoms: _257  and  _260
REMARK  105  A    between atoms: _260  and  _261
REMARK  106  A    between atoms: _261  and  _262
REMARK  107  A    between atoms: _262  and  _263
REMARK  108  A    between atoms: _272  and  _274
REMARK  109  A    between atoms: _274  and  _275
REMARK  110  A    between atoms: _274  and  _277
REMARK  111  A    between atoms: _277  and  _278
REMARK  112  A    between atoms: _282  and  _283
REMARK  113  A    between atoms: _288  and  _290
REMARK  114  A    between atoms: _290  and  _291
REMARK  115  A    between atoms: _290  and  _293
REMARK  116  A    between atoms: _293  and  _294
REMARK  117  A    between atoms: _294  and  _295
REMARK  118  A    between atoms: _298  and  _300
REMARK  119  A    between atoms: _300  and  _301
REMARK  120  A    between atoms: _300  and  _303
REMARK  121  A    between atoms: _303  and  _304
REMARK  122  A    between atoms: _304  and  _305
REMARK  123  A    between atoms: _308  and  _310
REMARK  124  A    between atoms: _310  and  _311
REMARK  125  A    between atoms: _310  and  _313
REMARK  126  A    between atoms: _313  and  _314
REMARK  127  A    between atoms: _319  and  _321
REMARK  128  A    between atoms: _321  and  _322
REMARK  129  A    between atoms: _321  and  _324
REMARK  130  A    between atoms: _324  and  _325
REMARK  131  A    between atoms: _328  and  _330
REMARK  132  A    between atoms: _330  and  _331
REMARK  133  A    between atoms: _330  and  _333
REMARK  134  A    between atoms: _333  and  _334
REMARK  135  A    between atoms: _344  and  _346
REMARK  136  A    between atoms: _346  and  _347
REMARK  137  A    between atoms: _346  and  _349
REMARK  138  A    between atoms: _349  and  _350
REMARK  139  A    between atoms: _350  and  _351
REMARK  140  A    between atoms: _353  and  _355
REMARK  141  A    between atoms: _355  and  _356
REMARK  142  A    between atoms: _355  and  _358
REMARK  143  A    between atoms: _358  and  _359
REMARK  144  A    between atoms: _359  and  _360
REMARK  145  A    between atoms: _360  and  _361
REMARK  146  A    between atoms: _361  and  _362
REMARK  147  A    between atoms: _366  and  _368
REMARK  148  A    between atoms: _368  and  _369
REMARK  149  A    between atoms: _372  and  _374
REMARK  150  A    between atoms: _374  and  _375
REMARK  151  A    between atoms: _374  and  _377
REMARK  152  A    between atoms: _377  and  _378
REMARK  153  A    between atoms: _378  and  _379
REMARK  154  A    between atoms: _379  and  _380
REMARK  155  A    between atoms: _389  and  _391
REMARK  156  A    between atoms: _391  and  _392
REMARK  157  A    between atoms: _391  and  _394
REMARK  158  A    between atoms: _394  and  _395
REMARK  159  A    between atoms: _398  and  _400
REMARK  160  A    between atoms: _400  and  _401
REMARK  161  A    between atoms: _400  and  _403
REMARK  162  A    between atoms: _403  and  _404
REMARK  163  A    between atoms: _414  and  _416
REMARK  164  A    between atoms: _416  and  _417
REMARK  165  A    between atoms: _416  and  _419
REMARK  166  A    between atoms: _419  and  _420
REMARK  167  A    between atoms: _426  and  _428
REMARK  168  A    between atoms: _428  and  _429
REMARK  169  A    between atoms: _432  and  _434
REMARK  170  A    between atoms: _434  and  _435
REMARK  171  A    between atoms: _434  and  _437
REMARK  172  A    between atoms: _437  and  _438
REMARK  173  A    between atoms: _440  and  _442
REMARK  174  A    between atoms: _442  and  _443
REMARK  175  A    between atoms: _442  and  _445
REMARK  176  A    between atoms: _445  and  _446
REMARK  177  A    between atoms: _449  and  _451
REMARK  178  A    between atoms: _451  and  _452
REMARK  179  A    between atoms: _455  and  _457
REMARK  180  A    between atoms: _457  and  _458
REMARK  181  A    between atoms: _457  and  _460
REMARK  182  A    between atoms: _460  and  _461
REMARK  183  A    between atoms: _464  and  _466
REMARK  184  A    between atoms: _466  and  _467
REMARK  185  A    between atoms: _466  and  _469
REMARK  186  A    between atoms: _469  and  _470
REMARK  187  A    between atoms: _473  and  _475
REMARK  188  A    between atoms: _475  and  _476
REMARK  189  A    between atoms: _475  and  _478
REMARK  190  A    between atoms: _478  and  _479
REMARK  191  A    between atoms: _479  and  _480
REMARK  192  A    between atoms: _480  and  _481
REMARK  193  A    between atoms: _490  and  _492
REMARK  194  A    between atoms: _492  and  _493
REMARK  195  A    between atoms: _492  and  _495
REMARK  196  A    between atoms: _495  and  _496
REMARK  197  A    between atoms: _496  and  _497
REMARK  198  A    between atoms: _502  and  _504
REMARK  199  A    between atoms: _504  and  _505
REMARK  200  A    between atoms: _504  and  _507
REMARK  201  A    between atoms: _507  and  _508
REMARK  202  A    between atoms: _508  and  _509
REMARK  203  A    between atoms: _509  and  _510
REMARK  204  A    between atoms: _520  and  _521
REMARK  205  A    between atoms: _526  and  _528
REMARK  206  A    between atoms: _528  and  _529
REMARK  207  A    between atoms: _528  and  _531
REMARK  208  A    between atoms: _531  and  _532
REMARK  209  A    between atoms: _535  and  _537
REMARK  210  A    between atoms: _537  and  _538
REMARK  211  A    between atoms: _537  and  _540
REMARK  212  A    between atoms: _540  and  _541
REMARK  213  A    between atoms: _547  and  _548
REMARK  214  A    between atoms: _553  and  _555
REMARK  215  A    between atoms: _555  and  _556
REMARK  216  A    between atoms: _555  and  _558
REMARK  217  A    between atoms: _561  and  _563
REMARK  218  A    between atoms: _563  and  _564
REMARK  219  A    between atoms: _563  and  _566
REMARK  220  A    between atoms: _566  and  _567
REMARK  221  A    between atoms: _572  and  _574
REMARK  222  A    between atoms: _574  and  _575
REMARK  223  A    between atoms: _574  and  _577
REMARK  224  A    between atoms: _577  and  _578
REMARK  225  A    between atoms: _583  and  _585
REMARK  226  A    between atoms: _585  and  _586
REMARK  227  A    between atoms: _585  and  _588
REMARK  228  A    between atoms: _588  and  _589
REMARK  229  A    between atoms: _589  and  _590
REMARK  230  A    between atoms: _592  and  _594
REMARK  231  A    between atoms: _594  and  _595
REMARK  232  A    between atoms: _594  and  _597
REMARK  233  A    between atoms: _597  and  _598
REMARK  234  A    between atoms: _603  and  _604
REMARK  235  A    between atoms: _606  and  _608
REMARK  236  A    between atoms: _608  and  _609
REMARK  237  A    between atoms: _608  and  _611
REMARK  238  A    between atoms: _611  and  _612
REMARK  239  A    between atoms: _612  and  _613
REMARK  240  A    between atoms: _618  and  _620
REMARK  241  A    between atoms: _620  and  _621
REMARK  242  A    between atoms: _620  and  _623
REMARK  243  A    between atoms: _623  and  _624
REMARK  244  A    between atoms: _628  and  _629
REMARK  245  A    between atoms: _634  and  _636
REMARK  246  A    between atoms: _636  and  _637
REMARK  247  A    between atoms: _636  and  _639
REMARK  248  A    between atoms: _639  and  _640
REMARK  249  A    between atoms: _646  and  _648
REMARK  250  A    between atoms: _648  and  _649
REMARK  251  A    between atoms: _648  and  _651
REMARK  252  A    between atoms: _651  and  _652
REMARK  253  A    between atoms: _652  and  _653
REMARK  254  A    between atoms: _658  and  _660
REMARK  255  A    between atoms: _660  and  _661
REMARK  256  A    between atoms: _660  and  _663
REMARK  257  A    between atoms: _663  and  _664
REMARK  258  A    between atoms: _667  and  _669
REMARK  259  A    between atoms: _669  and  _670
REMARK  260  A    between atoms: _669  and  _672
REMARK  261  A    between atoms: _672  and  _673
REMARK  262  A    between atoms: _678  and  _679
REMARK  263  A    between atoms: _681  and  _683
REMARK  264  A    between atoms: _683  and  _684
REMARK  265  A    between atoms: _683  and  _686
REMARK  266  A    between atoms: _686  and  _687
REMARK  267  A    between atoms: _692  and  _693
REMARK  268  A    between atoms: _695  and  _697
REMARK  269  A    between atoms: _697  and  _698
REMARK  270  A    between atoms: _697  and  _700
REMARK  271  A    between atoms: _700  and  _701
REMARK  272  A    between atoms: _701  and  _702
REMARK  273  A    between atoms: _705  and  _707
REMARK  274  A    between atoms: _707  and  _708
REMARK  275  A    between atoms: _707  and  _710
REMARK  276  A    between atoms: _710  and  _711
REMARK  277  A    between atoms: _711  and  _712
REMARK  278  A    between atoms: _712  and  _713
REMARK  279  A    between atoms: _722  and  _724
REMARK  280  A    between atoms: _724  and  _725
REMARK  281  A    between atoms: _724  and  _727
REMARK  282  A    between atoms: _727  and  _728
REMARK  283  A    between atoms: _738  and  _740
REMARK  284  A    between atoms: _740  and  _741
REMARK  285  A    between atoms: _740  and  _743
REMARK  286  A    between atoms: _743  and  _744
REMARK  287  A    between atoms: _747  and  _749
REMARK  288  A    between atoms: _749  and  _750
REMARK  289  A    between atoms: _753  and  _755
REMARK  290  A    between atoms: _755  and  _756
REMARK  291  A    between atoms: _755  and  _758
REMARK  292  A    between atoms: _758  and  _759
REMARK  293  A    between atoms: _762  and  _764
REMARK  294  A    between atoms: _764  and  _765
REMARK  295  A    between atoms: _764  and  _767
REMARK  296  A    between atoms: _767  and  _768
REMARK  297  A    between atoms: _768  and  _769
REMARK  298  A    between atoms: _769  and  _770
REMARK  299  A    between atoms: _770  and  _771
REMARK  300  A    between atoms: _775  and  _777
REMARK  301  A    between atoms: _777  and  _778
REMARK  302  A    between atoms: _777  and  _780
REMARK  303  A    between atoms: _780  and  _781
REMARK                            x       y       z     vdW  Elec       q    Type
REMARK                         _______ _______ _______ _____ _____    ______ ____
ROOT
ATOM      1  CA  ASP A   3     -24.041  -7.452  -6.831  0.00  0.00    +0.160 C 
ENDROOT
BRANCH   1   2
ATOM      2  C   ASP A   3     -25.485  -7.817  -7.157  0.00  0.00    +0.244 C 
ATOM      3  O   ASP A   3     -25.960  -8.894  -6.791  0.00  0.00    -0.273 OA
ATOM      4  N   PRO A   4     -26.202  -6.929  -7.858  0.00  0.00    -0.272 N 
ATOM      5  CA  PRO A   4     -27.594  -7.235  -8.198  0.00  0.00    +0.152 C 
ATOM      6  CB  PRO A   4     -27.994  -6.059  -9.084  0.00  0.00    +0.031 C 
ATOM      7  CG  PRO A   4     -27.190  -4.929  -8.506  0.00  0.00    +0.024 C 
ATOM      8  CD  PRO A   4     -25.836  -5.574  -8.309  0.00  0.00    +0.094 C 
BRANCH   5   9
ATOM      9  C   PRO A   4     -27.757  -8.589  -8.908  0.00  0.00    +0.241 C 
ATOM     10  O   PRO A   4     -28.734  -9.300  -8.680  0.00  0.00    -0.273 OA
ATOM     11  N   GLU A   5     -26.796  -8.945  -9.757  0.00  0.00    -0.297 N 
ATOM     12  H   GLU A   5     -25.982  -8.313  -9.899  0.00  0.00    +0.150 HD
BRANCH  11  13
ATOM     13  CA  GLU A   5     -26.861 -10.206 -10.495  0.00  0.00    +0.149 C 
BRANCH  13  14
ATOM     14  C   GLU A   5     -26.905 -11.452  -9.607  0.00  0.00    +0.241 C 
ATOM     15  N   GLU A   6     -26.438 -11.334  -8.373  0.00  0.00    -0.298 N 
ATOM     16  H   GLU A   6     -26.049 -10.425  -8.050  0.00  0.00    +0.150 HD
ATOM     17  O   GLU A   5     -27.351 -12.512 -10.038  0.00  0.00    -0.273 OA
BRANCH  15  18
ATOM     18  CA  GLU A   6     -26.469 -12.475  -7.468  0.00  0.00    +0.137 C 
BRANCH  18  19
ATOM     19  C   GLU A   6     -27.910 -12.899  -7.162  0.00  0.00    +0.227 C 
ATOM     20  O   GLU A   6     -28.159 -14.042  -6.761  0.00  0.00    -0.286 OA
ENDBRANCH  18  19
BRANCH  18  21
ATOM     21  CB  GLU A   6     -25.724 -12.136  -6.178  0.00  0.00    +0.039 C 
BRANCH  21  22
ATOM     22  CG  GLU A   6     -24.199 -12.115  -6.334  0.00  0.00    +0.116 C 
BRANCH  22  23
ATOM     23  CD  GLU A   6     -23.611 -13.485  -6.650  0.00  0.00    +0.365 C 
ATOM     24  OE2 GLU A   6     -24.194 -14.505  -6.219  0.00  0.00    -0.246 OA
ATOM     25  OE1 GLU A   6     -22.549 -13.545  -7.311  0.00  0.00    -0.246 OA
ENDBRANCH  22  23
ENDBRANCH  21  22
ENDBRANCH  18  21
ENDBRANCH  15  18
ENDBRANCH  13  14
BRANCH  13  26
ATOM     26  CB  GLU A   5     -25.684 -10.328 -11.471  0.00  0.00    +0.041 C 
BRANCH  26  27
ATOM     27  CG  GLU A   5     -25.654  -9.274 -12.573  0.00  0.00    +0.116 C 
BRANCH  27  28
ATOM     28  CD  GLU A   5     -25.023  -7.961 -12.128  0.00  0.00    +0.365 C 
ATOM     29  OE2 GLU A   5     -24.844  -7.760 -10.908  0.00  0.00    -0.246 OA
ATOM     30  OE1 GLU A   5     -24.712  -7.125 -13.004  0.00  0.00    -0.246 OA
ENDBRANCH  27  28
ENDBRANCH  26  27
ENDBRANCH  13  26
ENDBRANCH  11  13
ENDBRANCH   5   9
ENDBRANCH   1   2
BRANCH   1  32
ATOM     31  C   ARG A   2     -23.685  -6.008  -4.880  0.00  0.00    +0.241 C 
ATOM     32  N   ASP A   3     -23.854  -7.231  -5.389  0.00  0.00    -0.297 N 
ATOM     33  H   ASP A   3     -23.853  -8.050  -4.748  0.00  0.00    +0.150 HD
ATOM     34  O   ARG A   2     -23.672  -4.993  -5.575  0.00  0.00    -0.273 OA
BRANCH  31  35
ATOM     35  CA  ARG A   2     -23.525  -5.897  -3.365  0.00  0.00    +0.149 C 
BRANCH  35  37
ATOM     36  C   ASN A   1     -25.231  -7.377  -2.560  0.00  0.00    +0.239 C 
ATOM     37  N   ARG A   2     -23.935  -7.117  -2.689  0.00  0.00    -0.297 N 
ATOM     38  H   ARG A   2     -23.224  -7.776  -2.312  0.00  0.00    +0.150 HD
ATOM     39  O   ASN A   1     -26.098  -6.614  -2.978  0.00  0.00    -0.274 OA
BRANCH  36  40
ATOM     40  CA  ASN A   1     -25.609  -8.680  -1.863  0.00  0.00    +0.154 C 
BRANCH  40  41
ATOM     41  N   ASN A   1     -26.698  -8.484  -0.919  0.00  0.00    -0.238 NA
ATOM     42  H   ASN A   1     -27.274  -7.620  -0.975  0.00  0.00    +0.142 HD
ENDBRANCH  40  41
BRANCH  40  43
ATOM     43  CB  ASN A   1     -25.993  -9.714  -2.917  0.00  0.00    +0.111 C 
BRANCH  43  44
ATOM     44  CG  ASN A   1     -24.823 -10.573  -3.328  0.00  0.00    +0.221 C 
ATOM     45  OD1 ASN A   1     -24.759 -11.756  -2.990  0.00  0.00    -0.275 OA
ATOM     46  ND2 ASN A   1     -23.876  -9.979  -4.046  0.00  0.00    -0.329 N 
ATOM     47 HD21 ASN A   1     -23.973  -8.977  -4.308  0.00  0.00    +0.145 HD
ATOM     48 HD22 ASN A   1     -23.037 -10.516  -4.346  0.00  0.00    +0.145 HD
ENDBRANCH  43  44
ENDBRANCH  40  43
ENDBRANCH  36  40
ENDBRANCH  35  37
BRANCH  35  49
ATOM     49  CB  ARG A   2     -22.087  -5.514  -2.992  0.00  0.00    +0.033 C 
BRANCH  49  50
ATOM     50  CG  ARG A   2     -21.064  -6.621  -3.082  0.00  0.00    +0.045 C 
BRANCH  50  51
ATOM     51  CD  ARG A   2     -19.664  -6.102  -2.738  0.00  0.00    +0.174 C 
BRANCH  51  52
ATOM     52  NE  ARG A   2     -18.677  -7.177  -2.794  0.00  0.00    -0.265 N 
ATOM     53  HE  ARG A   2     -18.967  -8.117  -2.455  0.00  0.00    +0.259 HD
ATOM     54  CZ  ARG A   2     -17.434  -7.041  -3.247  0.00  0.00    +0.342 C 
ATOM     55  NH2 ARG A   2     -16.622  -8.089  -3.262  0.00  0.00    -0.292 N 
ATOM     56 HH21 ARG A   2     -16.958  -9.012  -2.921  0.00  0.00    +0.255 HD
ATOM     57 HH22 ARG A   2     -15.649  -7.988  -3.615  0.00  0.00    +0.255 HD
ATOM     58  NH1 ARG A   2     -17.006  -5.866  -3.693  0.00  0.00    -0.292 N 
ATOM     59 HH11 ARG A   2     -17.644  -5.045  -3.690  0.00  0.00    +0.255 HD
ATOM     60 HH12 ARG A   2     -16.033  -5.767  -4.046  0.00  0.00    +0.255 HD
ENDBRANCH  51  52
ENDBRANCH  50  51
ENDBRANCH  49  50
ENDBRANCH  35  49
ENDBRANCH  31  35
ENDBRANCH   1  32
BRANCH   1  61
ATOM     61  CB  ASP A   3     -23.145  -8.581  -7.338  0.00  0.00    +0.143 C 
BRANCH  61  62
ATOM     62  CG  ASP A   3     -21.679  -8.258  -7.214  0.00  0.00    +0.367 C 
ATOM     63  OD2 ASP A   3     -20.958  -9.060  -6.585  0.00  0.00    -0.246 OA
ATOM     64  OD1 ASP A   3     -21.251  -7.208  -7.744  0.00  0.00    -0.246 OA
ENDBRANCH  61  62
ENDBRANCH   1  61
TORSDOF 25
REMARK  Name = ../refined-set-2016/1y3p/1y3p_pocket.pdb
REMARK  303 active torsions:
REMARK  status: ('A' for Active; 'I' for Inactive)
REMARK    1  A    between atoms: _1  and  _3
REMARK    2  A    between atoms: _3  and  _4
REMARK    3  A    between atoms: _3  and  _6
REMARK    4  A    between atoms: _6  and  _7
REMARK    5  A    between atoms: _12  and  _14
REMARK    6  A    between atoms: _14  and  _15
REMARK    7  A    between atoms: _14  and  _17
REMARK    8  A    between atoms: _17  and  _18
REMARK    9  A    between atoms: _24  and  _26
REMARK   10  A    between atoms: _26  and  _27
REMARK   11  A    between atoms: _26  and  _29
REMARK   12  A    between atoms: _29  and  _30
REMARK   13  A    between atoms: _30  and  _31
REMARK   14  A    between atoms: _31  and  _32
REMARK   15  A    between atoms: _41  and  _43
REMARK   16  A    between atoms: _43  and  _44
REMARK   17  A    between atoms: _43  and  _46
REMARK   18  A    between atoms: _46  and  _47
REMARK   19  A    between atoms: _50  and  _52
REMARK   20  A    between atoms: _52  and  _53
REMARK   21  A    between atoms: _52  and  _55
REMARK   22  A    between atoms: _55  and  _56
REMARK   23  A    between atoms: _56  and  _57
REMARK   24  A    between atoms: _57  and  _58
REMARK   25  A    between atoms: _58  and  _59
REMARK   26  A    between atoms: _63  and  _65
REMARK   27  A    between atoms: _65  and  _66
REMARK   28  A    between atoms: _65  and  _68
REMARK   29  A    between atoms: _68  and  _69
REMARK   30  A    between atoms: _79  and  _81
REMARK   31  A    between atoms: _81  and  _82
REMARK   32  A    between atoms: _81  and  _84
REMARK   33  A    between atoms: _84  and  _85
REMARK   34  A    between atoms: _88  and  _90
REMARK   35  A    between atoms: _90  and  _91
REMARK   36  A    between atoms: _90  and  _93
REMARK   37  A    between atoms: _93  and  _94
REMARK   38  A    between atoms: _99  and  _101
REMARK   39  A    between atoms: _101  and  _102
REMARK   40  A    between atoms: _101  and  _104
REMARK   41  A    between atoms: _104  and  _105
REMARK   42  A    between atoms: _107  and  _109
REMARK   43  A    between atoms: _109  and  _110
REMARK   44  A    between atoms: _109  and  _112
REMARK   45  A    between atoms: _112  and  _113
REMARK   46  A    between atoms: _113  and  _114
REMARK   47  A    between atoms: _119  and  _121
REMARK   48  A    between atoms: _121  and  _122
REMARK   49  A    between atoms: _121  and  _124
REMARK   50  A    between atoms: _124  and  _125
REMARK   51  A    between atoms: _125  and  _126
REMARK   52  A    between atoms: _129  and  _131
REMARK   53  A    between atoms: _131  and  _132
REMARK   54  A    between atoms: _134  and  _136
REMARK   55  A    between atoms: _136  and  _137
REMARK   56  A    between atoms: _136  and  _139
REMARK   57  A    between atoms: _139  and  _140
REMARK   58  A    between atoms: _143  and  _145
REMARK   59  A    between atoms: _145  and  _146
REMARK   60  A    between atoms: _145  and  _148
REMARK   61  A    between atoms: _148  and  _149
REMARK   62  A    between atoms: _154  and  _156
REMARK   63  A    between atoms: _156  and  _157
REMARK   64  A    between atoms: _156  and  _159
REMARK   65  A    between atoms: _159  and  _160
REMARK   66  A    between atoms: _163  and  _165
REMARK   67  A    between atoms: _165  and  _166
REMARK   68  A    between atoms: _165  and  _168
REMARK   69  A    between atoms: _168  and  _169
REMARK   70  A    between atoms: _169  and  _170
REMARK   71  A    between atoms: _170  and  _171
REMARK   72  A    between atoms: _171  and  _172
REMARK   73  A    between atoms: _176  and  _178
REMARK   74  A    between atoms: _178  and  _179
REMARK   75  A    between atoms: _178  and  _181
REMARK   76  A    between atoms: _181  and  _182
REMARK   77  A    between atoms: _187  and  _188
REMARK   78  A    between atoms: _191  and  _192
REMARK   79  A    between atoms: _197  and  _199
REMARK   80  A    between atoms: _199  and  _200
REMARK   81  A    between atoms: _199  and  _202
REMARK   82  A    between atoms: _202  and  _203
REMARK   83  A    between atoms: _206  and  _208
REMARK   84  A    between atoms: _208  and  _209
REMARK   85  A    between atoms: _211  and  _213
REMARK   86  A    between atoms: _213  and  _214
REMARK   87  A    between atoms: _213  and  _216
REMARK   88  A    between atoms: _219  and  _221
REMARK   89  A    between atoms: _221  and  _222
REMARK   90  A    between atoms: _221  and  _224
REMARK   91  A    between atoms: _224  and  _225
REMARK   92  A    between atoms: _227  and  _229
REMARK   93  A    between atoms: _229  and  _230
REMARK   94  A    between atoms: _229  and  _232
REMARK   95  A    between atoms: _232  and  _233
REMARK   96  A    between atoms: _233  and  _234
REMARK   97  A    between atoms: _234  and  _235
REMARK   98  A    between atoms: _244  and  _246
REMARK   99  A    between atoms: _246  and  _247
REMARK  100  A    between atoms: _246  and  _249
REMARK  101  A    between atoms: _249  and  _250
REMARK  102  A    between atoms: _255  and  _257
REMARK  103  A    between atoms: _257  and  _258
REMARK  104  A    between atoms: _257  and  _260
REMARK  105  A    between atoms: _260  and  _261
REMARK  106  A    between atoms: _261  and  _262
REMARK  107  A    between atoms: _262  and  _263
REMARK  108  A    between atoms: _272  and  _274
REMARK  109  A    between atoms: _274  and  _275
REMARK  110  A    between atoms: _274  and  _277
REMARK  111  A    between atoms: _277  and  _278
REMARK  112  A    between atoms: _282  and  _283
REMARK  113  A    between atoms: _288  and  _290
REMARK  114  A    between atoms: _290  and  _291
REMARK  115  A    between atoms: _290  and  _293
REMARK  116  A    between atoms: _293  and  _294
REMARK  117  A    between atoms: _294  and  _295
REMARK  118  A    between atoms: _298  and  _300
REMARK  119  A    between atoms: _300  and  _301
REMARK  120  A    between atoms: _300  and  _303
REMARK  121  A    between atoms: _303  and  _304
REMARK  122  A    between atoms: _304  and  _305
REMARK  123  A    between atoms: _308  and  _310
REMARK  124  A    between atoms: _310  and  _311
REMARK  125  A    between atoms: _310  and  _313
REMARK  126  A    between atoms: _313  and  _314
REMARK  127  A    between atoms: _319  and  _321
REMARK  128  A    between atoms: _321  and  _322
REMARK  129  A    between atoms: _321  and  _324
REMARK  130  A    between atoms: _324  and  _325
REMARK  131  A    between atoms: _328  and  _330
REMARK  132  A    between atoms: _330  and  _331
REMARK  133  A    between atoms: _330  and  _333
REMARK  134  A    between atoms: _333  and  _334
REMARK  135  A    between atoms: _344  and  _346
REMARK  136  A    between atoms: _346  and  _347
REMARK  137  A    between atoms: _346  and  _349
REMARK  138  A    between atoms: _349  and  _350
REMARK  139  A    between atoms: _350  and  _351
REMARK  140  A    between atoms: _353  and  _355
REMARK  141  A    between atoms: _355  and  _356
REMARK  142  A    between atoms: _355  and  _358
REMARK  143  A    between atoms: _358  and  _359
REMARK  144  A    between atoms: _359  and  _360
REMARK  145  A    between atoms: _360  and  _361
REMARK  146  A    between atoms: _361  and  _362
REMARK  147  A    between atoms: _366  and  _368
REMARK  148  A    between atoms: _368  and  _369
REMARK  149  A    between atoms: _372  and  _374
REMARK  150  A    between atoms: _374  and  _375
REMARK  151  A    between atoms: _374  and  _377
REMARK  152  A    between atoms: _377  and  _378
REMARK  153  A    between atoms: _378  and  _379
REMARK  154  A    between atoms: _379  and  _380
REMARK  155  A    between atoms: _389  and  _391
REMARK  156  A    between atoms: _391  and  _392
REMARK  157  A    between atoms: _391  and  _394
REMARK  158  A    between atoms: _394  and  _395
REMARK  159  A    between atoms: _398  and  _400
REMARK  160  A    between atoms: _400  and  _401
REMARK  161  A    between atoms: _400  and  _403
REMARK  162  A    between atoms: _403  and  _404
REMARK  163  A    between atoms: _414  and  _416
REMARK  164  A    between atoms: _416  and  _417
REMARK  165  A    between atoms: _416  and  _419
REMARK  166  A    between atoms: _419  and  _420
REMARK  167  A    between atoms: _426  and  _428
REMARK  168  A    between atoms: _428  and  _429
REMARK  169  A    between atoms: _432  and  _434
REMARK  170  A    between atoms: _434  and  _435
REMARK  171  A    between atoms: _434  and  _437
REMARK  172  A    between atoms: _437  and  _438
REMARK  173  A    between atoms: _440  and  _442
REMARK  174  A    between atoms: _442  and  _443
REMARK  175  A    between atoms: _442  and  _445
REMARK  176  A    between atoms: _445  and  _446
REMARK  177  A    between atoms: _449  and  _451
REMARK  178  A    between atoms: _451  and  _452
REMARK  179  A    between atoms: _455  and  _457
REMARK  180  A    between atoms: _457  and  _458
REMARK  181  A    between atoms: _457  and  _460
REMARK  182  A    between atoms: _460  and  _461
REMARK  183  A    between atoms: _464  and  _466
REMARK  184  A    between atoms: _466  and  _467
REMARK  185  A    between atoms: _466  and  _469
REMARK  186  A    between atoms: _469  and  _470
REMARK  187  A    between atoms: _473  and  _475
REMARK  188  A    between atoms: _475  and  _476
REMARK  189  A    between atoms: _475  and  _478
REMARK  190  A    between atoms: _478  and  _479
REMARK  191  A    between atoms: _479  and  _480
REMARK  192  A    between atoms: _480  and  _481
REMARK  193  A    between atoms: _490  and  _492
REMARK  194  A    between atoms: _492  and  _493
REMARK  195  A    between atoms: _492  and  _495
REMARK  196  A    between atoms: _495  and  _496
REMARK  197  A    between atoms: _496  and  _497
REMARK  198  A    between atoms: _502  and  _504
REMARK  199  A    between atoms: _504  and  _505
REMARK  200  A    between atoms: _504  and  _507
REMARK  201  A    between atoms: _507  and  _508
REMARK  202  A    between atoms: _508  and  _509
REMARK  203  A    between atoms: _509  and  _510
REMARK  204  A    between atoms: _520  and  _521
REMARK  205  A    between atoms: _526  and  _528
REMARK  206  A    between atoms: _528  and  _529
REMARK  207  A    between atoms: _528  and  _531
REMARK  208  A    between atoms: _531  and  _532
REMARK  209  A    between atoms: _535  and  _537
REMARK  210  A    between atoms: _537  and  _538
REMARK  211  A    between atoms: _537  and  _540
REMARK  212  A    between atoms: _540  and  _541
REMARK  213  A    between atoms: _547  and  _548
REMARK  214  A    between atoms: _553  and  _555
REMARK  215  A    between atoms: _555  and  _556
REMARK  216  A    between atoms: _555  and  _558
REMARK  217  A    between atoms: _561  and  _563
REMARK  218  A    between atoms: _563  and  _564
REMARK  219  A    between atoms: _563  and  _566
REMARK  220  A    between atoms: _566  and  _567
REMARK  221  A    between atoms: _572  and  _574
REMARK  222  A    between atoms: _574  and  _575
REMARK  223  A    between atoms: _574  and  _577
REMARK  224  A    between atoms: _577  and  _578
REMARK  225  A    between atoms: _583  and  _585
REMARK  226  A    between atoms: _585  and  _586
REMARK  227  A    between atoms: _585  and  _588
REMARK  228  A    between atoms: _588  and  _589
REMARK  229  A    between atoms: _589  and  _590
REMARK  230  A    between atoms: _592  and  _594
REMARK  231  A    between atoms: _594  and  _595
REMARK  232  A    between atoms: _594  and  _597
REMARK  233  A    between atoms: _597  and  _598
REMARK  234  A    between atoms: _603  and  _604
REMARK  235  A    between atoms: _606  and  _608
REMARK  236  A    between atoms: _608  and  _609
REMARK  237  A    between atoms: _608  and  _611
REMARK  238  A    between atoms: _611  and  _612
REMARK  239  A    between atoms: _612  and  _613
REMARK  240  A    between atoms: _618  and  _620
REMARK  241  A    between atoms: _620  and  _621
REMARK  242  A    between atoms: _620  and  _623
REMARK  243  A    between atoms: _623  and  _624
REMARK  244  A    between atoms: _628  and  _629
REMARK  245  A    between atoms: _634  and  _636
REMARK  246  A    between atoms: _636  and  _637
REMARK  247  A    between atoms: _636  and  _639
REMARK  248  A    between atoms: _639  and  _640
REMARK  249  A    between atoms: _646  and  _648
REMARK  250  A    between atoms: _648  and  _649
REMARK  251  A    between atoms: _648  and  _651
REMARK  252  A    between atoms: _651  and  _652
REMARK  253  A    between atoms: _652  and  _653
REMARK  254  A    between atoms: _658  and  _660
REMARK  255  A    between atoms: _660  and  _661
REMARK  256  A    between atoms: _660  and  _663
REMARK  257  A    between atoms: _663  and  _664
REMARK  258  A    between atoms: _667  and  _669
REMARK  259  A    between atoms: _669  and  _670
REMARK  260  A    between atoms: _669  and  _672
REMARK  261  A    between atoms: _672  and  _673
REMARK  262  A    between atoms: _678  and  _679
REMARK  263  A    between atoms: _681  and  _683
REMARK  264  A    between atoms: _683  and  _684
REMARK  265  A    between atoms: _683  and  _686
REMARK  266  A    between atoms: _686  and  _687
REMARK  267  A    between atoms: _692  and  _693
REMARK  268  A    between atoms: _695  and  _697
REMARK  269  A    between atoms: _697  and  _698
REMARK  270  A    between atoms: _697  and  _700
REMARK  271  A    between atoms: _700  and  _701
REMARK  272  A    between atoms: _701  and  _702
REMARK  273  A    between atoms: _705  and  _707
REMARK  274  A    between atoms: _707  and  _708
REMARK  275  A    between atoms: _707  and  _710
REMARK  276  A    between atoms: _710  and  _711
REMARK  277  A    between atoms: _711  and  _712
REMARK  278  A    between atoms: _712  and  _713
REMARK  279  A    between atoms: _722  and  _724
REMARK  280  A    between atoms: _724  and  _725
REMARK  281  A    between atoms: _724  and  _727
REMARK  282  A    between atoms: _727  and  _728
REMARK  283  A    between atoms: _738  and  _740
REMARK  284  A    between atoms: _740  and  _741
REMARK  285  A    between atoms: _740  and  _743
REMARK  286  A    between atoms: _743  and  _744
REMARK  287  A    between atoms: _747  and  _749
REMARK  288  A    between atoms: _749  and  _750
REMARK  289  A    between atoms: _753  and  _755
REMARK  290  A    between atoms: _755  and  _756
REMARK  291  A    between atoms: _755  and  _758
REMARK  292  A    between atoms: _758  and  _759
REMARK  293  A    between atoms: _762  and  _764
REMARK  294  A    between atoms: _764  and  _765
REMARK  295  A    between atoms: _764  and  _767
REMARK  296  A    between atoms: _767  and  _768
REMARK  297  A    between atoms: _768  and  _769
REMARK  298  A    between atoms: _769  and  _770
REMARK  299  A    between atoms: _770  and  _771
REMARK  300  A    between atoms: _775  and  _777
REMARK  301  A    between atoms: _777  and  _778
REMARK  302  A    between atoms: _777  and  _780
REMARK  303  A    between atoms: _780  and  _781
REMARK                            x       y       z     vdW  Elec       q    Type
REMARK                         _______ _______ _______ _____ _____    ______ ____
ROOT
ATOM      1  CA  TRP A   3     -22.368 -12.260 -15.847  0.00  0.00    +0.153 C 
ENDROOT
BRANCH   1   3
ATOM      2  C   THR A   2     -20.247 -13.312 -16.447  0.00  0.00    +0.243 C 
ATOM      3  N   TRP A   3     -20.918 -12.225 -16.064  0.00  0.00    -0.297 N 
ATOM      4  H   TRP A   3     -20.402 -11.334 -15.916  0.00  0.00    +0.150 HD
ATOM      5  O   THR A   2     -20.798 -14.397 -16.645  0.00  0.00    -0.273 OA
BRANCH   2   6
ATOM      6  CA  THR A   2     -18.727 -13.178 -16.613  0.00  0.00    +0.176 C 
BRANCH   6   9
ATOM      7  C   ASN A   1     -18.062 -14.052 -14.445  0.00  0.00    +0.239 C 
ATOM      8  O   ASN A   1     -18.364 -12.996 -13.883  0.00  0.00    -0.274 OA
ATOM      9  N   THR A   2     -18.167 -14.220 -15.758  0.00  0.00    -0.295 N 
ATOM     10  H   THR A   2     -17.844 -15.111 -16.185  0.00  0.00    +0.150 HD
BRANCH   7  11
ATOM     11  CA  ASN A   1     -17.518 -15.240 -13.649  0.00  0.00    +0.154 C 
BRANCH  11  12
ATOM     12  N   ASN A   1     -17.585 -16.456 -14.447  0.00  0.00    -0.238 NA
ATOM     13  H   ASN A   1     -16.698 -16.927 -14.718  0.00  0.00    +0.142 HD
ENDBRANCH  11  12
BRANCH  11  14
ATOM     14  CB  ASN A   1     -16.072 -14.981 -13.210  0.00  0.00    +0.111 C 
BRANCH  14  15
ATOM     15  CG  ASN A   1     -15.959 -13.847 -12.207  0.00  0.00    +0.221 C 
ATOM     16  OD1 ASN A   1     -16.589 -13.869 -11.139  0.00  0.00    -0.275 OA
ATOM     17  ND2 ASN A   1     -15.149 -12.853 -12.538  0.00  0.00    -0.329 N 
ATOM     18 HD21 ASN A   1     -15.021 -12.049 -11.891  0.00  0.00    +0.145 HD
ATOM     19 HD22 ASN A   1     -14.640 -12.877 -13.445  0.00  0.00    +0.145 HD
ENDBRANCH  14  15
ENDBRANCH  11  14
ENDBRANCH   7  11
ENDBRANCH   6   9
BRANCH   6  20
ATOM     20  CB  THR A   2     -18.339 -13.404 -18.088  0.00  0.00    +0.137 C 
ATOM     21  CG2 THR A   2     -19.020 -12.386 -18.985  0.00  0.00    +0.034 C 
BRANCH  20  22
ATOM     22  OG1 THR A   2     -16.917 -13.277 -18.234  0.00  0.00    -0.382 OA
ATOM     23  HG1 THR A   2     -16.467 -13.952 -17.667  0.00  0.00    +0.210 HD
ENDBRANCH  20  22
ENDBRANCH   6  20
ENDBRANCH   2   6
ENDBRANCH   1   3
BRANCH   1  24
ATOM     24  C   TRP A   3     -23.155 -12.711 -17.081  0.00  0.00    +0.241 C 
ATOM     25  N   MET A   4     -24.245 -13.438 -16.847  0.00  0.00    -0.298 N 
ATOM     26  H   MET A   4     -24.495 -13.653 -15.861  0.00  0.00    +0.150 HD
ATOM     27  O   TRP A   3     -22.780 -12.412 -18.209  0.00  0.00    -0.273 OA
BRANCH  25  28
ATOM     28  CA  MET A   4     -25.110 -13.950 -17.913  0.00  0.00    +0.138 C 
BRANCH  28  29
ATOM     29  C   MET A   4     -24.350 -14.557 -19.091  0.00  0.00    +0.227 C 
ATOM     30  O   MET A   4     -24.639 -14.265 -20.250  0.00  0.00    -0.286 OA
ENDBRANCH  28  29
BRANCH  28  31
ATOM     31  CB  MET A   4     -26.052 -12.839 -18.396  0.00  0.00    +0.039 C 
BRANCH  31  32
ATOM     32  CG  MET A   4     -27.122 -12.487 -17.366  0.00  0.00    +0.060 C 
BRANCH  32  33
ATOM     33  SD  MET A   4     -28.059 -10.990 -17.724  0.00  0.00    -0.139 S 
ATOM     34  CE  MET A   4     -28.677 -11.369 -19.334  0.00  0.00    +0.069 C 
ENDBRANCH  32  33
ENDBRANCH  31  32
ENDBRANCH  28  31
ENDBRANCH  25  28
ENDBRANCH   1  24
BRANCH   1  35
ATOM     35  CB  TRP A   3     -22.876 -10.885 -15.382  0.00  0.00    +0.057 C 
BRANCH  35  36
ATOM     36  CG  TRP A   3     -22.402 -10.452 -13.992  0.00  0.00    -0.002 A 
ATOM     37  CD2 TRP A   3     -22.590 -11.149 -12.746  0.00  0.00    +0.013 A 
ATOM     38  CE2 TRP A   3     -22.045 -10.331 -11.722  0.00  0.00    +0.056 A 
ATOM     39  CZ2 TRP A   3     -22.060 -10.704 -10.371  0.00  0.00    +0.017 A 
ATOM     40  CH2 TRP A   3     -22.630 -11.910 -10.052  0.00  0.00    +0.001 A 
ATOM     41  CZ3 TRP A   3     -23.181 -12.747 -11.046  0.00  0.00    +0.000 A 
ATOM     42  NE1 TRP A   3     -21.550  -9.202 -12.317  0.00  0.00    -0.352 N 
ATOM     43  HE1 TRP A   3     -21.087  -8.412 -11.824  0.00  0.00    +0.166 HD
ATOM     44  CE3 TRP A   3     -23.166 -12.375 -12.394  0.00  0.00    +0.001 A 
ATOM     45  CD1 TRP A   3     -21.765  -9.283 -13.675  0.00  0.00    +0.068 A 
ENDBRANCH  35  36
ENDBRANCH   1  35
TORSDOF 17
REMARK  Name = ../refined-set-2016/1y3p/1y3p_pocket.pdb
REMARK  303 active torsions:
REMARK  status: ('A' for Active; 'I' for Inactive)
REMARK    1  A    between atoms: _1  and  _3
REMARK    2  A    between atoms: _3  and  _4
REMARK    3  A    between atoms: _3  and  _6
REMARK    4  A    between atoms: _6  and  _7
REMARK    5  A    between atoms: _12  and  _14
REMARK    6  A    between atoms: _14  and  _15
REMARK    7  A    between atoms: _14  and  _17
REMARK    8  A    between atoms: _17  and  _18
REMARK    9  A    between atoms: _24  and  _26
REMARK   10  A    between atoms: _26  and  _27
REMARK   11  A    between atoms: _26  and  _29
REMARK   12  A    between atoms: _29  and  _30
REMARK   13  A    between atoms: _30  and  _31
REMARK   14  A    between atoms: _31  and  _32
REMARK   15  A    between atoms: _41  and  _43
REMARK   16  A    between atoms: _43  and  _44
REMARK   17  A    between atoms: _43  and  _46
REMARK   18  A    between atoms: _46  and  _47
REMARK   19  A    between atoms: _50  and  _52
REMARK   20  A    between atoms: _52  and  _53
REMARK   21  A    between atoms: _52  and  _55
REMARK   22  A    between atoms: _55  and  _56
REMARK   23  A    between atoms: _56  and  _57
REMARK   24  A    between atoms: _57  and  _58
REMARK   25  A    between atoms: _58  and  _59
REMARK   26  A    between atoms: _63  and  _65
REMARK   27  A    between atoms: _65  and  _66
REMARK   28  A    between atoms: _65  and  _68
REMARK   29  A    between atoms: _68  and  _69
REMARK   30  A    between atoms: _79  and  _81
REMARK   31  A    between atoms: _81  and  _82
REMARK   32  A    between atoms: _81  and  _84
REMARK   33  A    between atoms: _84  and  _85
REMARK   34  A    between atoms: _88  and  _90
REMARK   35  A    between atoms: _90  and  _91
REMARK   36  A    between atoms: _90  and  _93
REMARK   37  A    between atoms: _93  and  _94
REMARK   38  A    between atoms: _99  and  _101
REMARK   39  A    between atoms: _101  and  _102
REMARK   40  A    between atoms: _101  and  _104
REMARK   41  A    between atoms: _104  and  _105
REMARK   42  A    between atoms: _107  and  _109
REMARK   43  A    between atoms: _109  and  _110
REMARK   44  A    between atoms: _109  and  _112
REMARK   45  A    between atoms: _112  and  _113
REMARK   46  A    between atoms: _113  and  _114
REMARK   47  A    between atoms: _119  and  _121
REMARK   48  A    between atoms: _121  and  _122
REMARK   49  A    between atoms: _121  and  _124
REMARK   50  A    between atoms: _124  and  _125
REMARK   51  A    between atoms: _125  and  _126
REMARK   52  A    between atoms: _129  and  _131
REMARK   53  A    between atoms: _131  and  _132
REMARK   54  A    between atoms: _134  and  _136
REMARK   55  A    between atoms: _136  and  _137
REMARK   56  A    between atoms: _136  and  _139
REMARK   57  A    between atoms: _139  and  _140
REMARK   58  A    between atoms: _143  and  _145
REMARK   59  A    between atoms: _145  and  _146
REMARK   60  A    between atoms: _145  and  _148
REMARK   61  A    between atoms: _148  and  _149
REMARK   62  A    between atoms: _154  and  _156
REMARK   63  A    between atoms: _156  and  _157
REMARK   64  A    between atoms: _156  and  _159
REMARK   65  A    between atoms: _159  and  _160
REMARK   66  A    between atoms: _163  and  _165
REMARK   67  A    between atoms: _165  and  _166
REMARK   68  A    between atoms: _165  and  _168
REMARK   69  A    between atoms: _168  and  _169
REMARK   70  A    between atoms: _169  and  _170
REMARK   71  A    between atoms: _170  and  _171
REMARK   72  A    between atoms: _171  and  _172
REMARK   73  A    between atoms: _176  and  _178
REMARK   74  A    between atoms: _178  and  _179
REMARK   75  A    between atoms: _178  and  _181
REMARK   76  A    between atoms: _181  and  _182
REMARK   77  A    between atoms: _187  and  _188
REMARK   78  A    between atoms: _191  and  _192
REMARK   79  A    between atoms: _197  and  _199
REMARK   80  A    between atoms: _199  and  _200
REMARK   81  A    between atoms: _199  and  _202
REMARK   82  A    between atoms: _202  and  _203
REMARK   83  A    between atoms: _206  and  _208
REMARK   84  A    between atoms: _208  and  _209
REMARK   85  A    between atoms: _211  and  _213
REMARK   86  A    between atoms: _213  and  _214
REMARK   87  A    between atoms: _213  and  _216
REMARK   88  A    between atoms: _219  and  _221
REMARK   89  A    between atoms: _221  and  _222
REMARK   90  A    between atoms: _221  and  _224
REMARK   91  A    between atoms: _224  and  _225
REMARK   92  A    between atoms: _227  and  _229
REMARK   93  A    between atoms: _229  and  _230
REMARK   94  A    between atoms: _229  and  _232
REMARK   95  A    between atoms: _232  and  _233
REMARK   96  A    between atoms: _233  and  _234
REMARK   97  A    between atoms: _234  and  _235
REMARK   98  A    between atoms: _244  and  _246
REMARK   99  A    between atoms: _246  and  _247
REMARK  100  A    between atoms: _246  and  _249
REMARK  101  A    between atoms: _249  and  _250
REMARK  102  A    between atoms: _255  and  _257
REMARK  103  A    between atoms: _257  and  _258
REMARK  104  A    between atoms: _257  and  _260
REMARK  105  A    between atoms: _260  and  _261
REMARK  106  A    between atoms: _261  and  _262
REMARK  107  A    between atoms: _262  and  _263
REMARK  108  A    between atoms: _272  and  _274
REMARK  109  A    between atoms: _274  and  _275
REMARK  110  A    between atoms: _274  and  _277
REMARK  111  A    between atoms: _277  and  _278
REMARK  112  A    between atoms: _282  and  _283
REMARK  113  A    between atoms: _288  and  _290
REMARK  114  A    between atoms: _290  and  _291
REMARK  115  A    between atoms: _290  and  _293
REMARK  116  A    between atoms: _293  and  _294
REMARK  117  A    between atoms: _294  and  _295
REMARK  118  A    between atoms: _298  and  _300
REMARK  119  A    between atoms: _300  and  _301
REMARK  120  A    between atoms: _300  and  _303
REMARK  121  A    between atoms: _303  and  _304
REMARK  122  A    between atoms: _304  and  _305
REMARK  123  A    between atoms: _308  and  _310
REMARK  124  A    between atoms: _310  and  _311
REMARK  125  A    between atoms: _310  and  _313
REMARK  126  A    between atoms: _313  and  _314
REMARK  127  A    between atoms: _319  and  _321
REMARK  128  A    between atoms: _321  and  _322
REMARK  129  A    between atoms: _321  and  _324
REMARK  130  A    between atoms: _324  and  _325
REMARK  131  A    between atoms: _328  and  _330
REMARK  132  A    between atoms: _330  and  _331
REMARK  133  A    between atoms: _330  and  _333
REMARK  134  A    between atoms: _333  and  _334
REMARK  135  A    between atoms: _344  and  _346
REMARK  136  A    between atoms: _346  and  _347
REMARK  137  A    between atoms: _346  and  _349
REMARK  138  A    between atoms: _349  and  _350
REMARK  139  A    between atoms: _350  and  _351
REMARK  140  A    between atoms: _353  and  _355
REMARK  141  A    between atoms: _355  and  _356
REMARK  142  A    between atoms: _355  and  _358
REMARK  143  A    between atoms: _358  and  _359
REMARK  144  A    between atoms: _359  and  _360
REMARK  145  A    between atoms: _360  and  _361
REMARK  146  A    between atoms: _361  and  _362
REMARK  147  A    between atoms: _366  and  _368
REMARK  148  A    between atoms: _368  and  _369
REMARK  149  A    between atoms: _372  and  _374
REMARK  150  A    between atoms: _374  and  _375
REMARK  151  A    between atoms: _374  and  _377
REMARK  152  A    between atoms: _377  and  _378
REMARK  153  A    between atoms: _378  and  _379
REMARK  154  A    between atoms: _379  and  _380
REMARK  155  A    between atoms: _389  and  _391
REMARK  156  A    between atoms: _391  and  _392
REMARK  157  A    between atoms: _391  and  _394
REMARK  158  A    between atoms: _394  and  _395
REMARK  159  A    between atoms: _398  and  _400
REMARK  160  A    between atoms: _400  and  _401
REMARK  161  A    between atoms: _400  and  _403
REMARK  162  A    between atoms: _403  and  _404
REMARK  163  A    between atoms: _414  and  _416
REMARK  164  A    between atoms: _416  and  _417
REMARK  165  A    between atoms: _416  and  _419
REMARK  166  A    between atoms: _419  and  _420
REMARK  167  A    between atoms: _426  and  _428
REMARK  168  A    between atoms: _428  and  _429
REMARK  169  A    between atoms: _432  and  _434
REMARK  170  A    between atoms: _434  and  _435
REMARK  171  A    between atoms: _434  and  _437
REMARK  172  A    between atoms: _437  and  _438
REMARK  173  A    between atoms: _440  and  _442
REMARK  174  A    between atoms: _442  and  _443
REMARK  175  A    between atoms: _442  and  _445
REMARK  176  A    between atoms: _445  and  _446
REMARK  177  A    between atoms: _449  and  _451
REMARK  178  A    between atoms: _451  and  _452
REMARK  179  A    between atoms: _455  and  _457
REMARK  180  A    between atoms: _457  and  _458
REMARK  181  A    between atoms: _457  and  _460
REMARK  182  A    between atoms: _460  and  _461
REMARK  183  A    between atoms: _464  and  _466
REMARK  184  A    between atoms: _466  and  _467
REMARK  185  A    between atoms: _466  and  _469
REMARK  186  A    between atoms: _469  and  _470
REMARK  187  A    between atoms: _473  and  _475
REMARK  188  A    between atoms: _475  and  _476
REMARK  189  A    between atoms: _475  and  _478
REMARK  190  A    between atoms: _478  and  _479
REMARK  191  A    between atoms: _479  and  _480
REMARK  192  A    between atoms: _480  and  _481
REMARK  193  A    between atoms: _490  and  _492
REMARK  194  A    between atoms: _492  and  _493
REMARK  195  A    between atoms: _492  and  _495
REMARK  196  A    between atoms: _495  and  _496
REMARK  197  A    between atoms: _496  and  _497
REMARK  198  A    between atoms: _502  and  _504
REMARK  199  A    between atoms: _504  and  _505
REMARK  200  A    between atoms: _504  and  _507
REMARK  201  A    between atoms: _507  and  _508
REMARK  202  A    between atoms: _508  and  _509
REMARK  203  A    between atoms: _509  and  _510
REMARK  204  A    between atoms: _520  and  _521
REMARK  205  A    between atoms: _526  and  _528
REMARK  206  A    between atoms: _528  and  _529
REMARK  207  A    between atoms: _528  and  _531
REMARK  208  A    between atoms: _531  and  _532
REMARK  209  A    between atoms: _535  and  _537
REMARK  210  A    between atoms: _537  and  _538
REMARK  211  A    between atoms: _537  and  _540
REMARK  212  A    between atoms: _540  and  _541
REMARK  213  A    between atoms: _547  and  _548
REMARK  214  A    between atoms: _553  and  _555
REMARK  215  A    between atoms: _555  and  _556
REMARK  216  A    between atoms: _555  and  _558
REMARK  217  A    between atoms: _561  and  _563
REMARK  218  A    between atoms: _563  and  _564
REMARK  219  A    between atoms: _563  and  _566
REMARK  220  A    between atoms: _566  and  _567
REMARK  221  A    between atoms: _572  and  _574
REMARK  222  A    between atoms: _574  and  _575
REMARK  223  A    between atoms: _574  and  _577
REMARK  224  A    between atoms: _577  and  _578
REMARK  225  A    between atoms: _583  and  _585
REMARK  226  A    between atoms: _585  and  _586
REMARK  227  A    between atoms: _585  and  _588
REMARK  228  A    between atoms: _588  and  _589
REMARK  229  A    between atoms: _589  and  _590
REMARK  230  A    between atoms: _592  and  _594
REMARK  231  A    between atoms: _594  and  _595
REMARK  232  A    between atoms: _594  and  _597
REMARK  233  A    between atoms: _597  and  _598
REMARK  234  A    between atoms: _603  and  _604
REMARK  235  A    between atoms: _606  and  _608
REMARK  236  A    between atoms: _608  and  _609
REMARK  237  A    between atoms: _608  and  _611
REMARK  238  A    between atoms: _611  and  _612
REMARK  239  A    between atoms: _612  and  _613
REMARK  240  A    between atoms: _618  and  _620
REMARK  241  A    between atoms: _620  and  _621
REMARK  242  A    between atoms: _620  and  _623
REMARK  243  A    between atoms: _623  and  _624
REMARK  244  A    between atoms: _628  and  _629
REMARK  245  A    between atoms: _634  and  _636
REMARK  246  A    between atoms: _636  and  _637
REMARK  247  A    between atoms: _636  and  _639
REMARK  248  A    between atoms: _639  and  _640
REMARK  249  A    between atoms: _646  and  _648
REMARK  250  A    between atoms: _648  and  _649
REMARK  251  A    between atoms: _648  and  _651
REMARK  252  A    between atoms: _651  and  _652
REMARK  253  A    between atoms: _652  and  _653
REMARK  254  A    between atoms: _658  and  _660
REMARK  255  A    between atoms: _660  and  _661
REMARK  256  A    between atoms: _660  and  _663
REMARK  257  A    between atoms: _663  and  _664
REMARK  258  A    between atoms: _667  and  _669
REMARK  259  A    between atoms: _669  and  _670
REMARK  260  A    between atoms: _669  and  _672
REMARK  261  A    between atoms: _672  and  _673
REMARK  262  A    between atoms: _678  and  _679
REMARK  263  A    between atoms: _681  and  _683
REMARK  264  A    between atoms: _683  and  _684
REMARK  265  A    between atoms: _683  and  _686
REMARK  266  A    between atoms: _686  and  _687
REMARK  267  A    between atoms: _692  and  _693
REMARK  268  A    between atoms: _695  and  _697
REMARK  269  A    between atoms: _697  and  _698
REMARK  270  A    between atoms: _697  and  _700
REMARK  271  A    between atoms: _700  and  _701
REMARK  272  A    between atoms: _701  and  _702
REMARK  273  A    between atoms: _705  and  _707
REMARK  274  A    between atoms: _707  and  _708
REMARK  275  A    between atoms: _707  and  _710
REMARK  276  A    between atoms: _710  and  _711
REMARK  277  A    between atoms: _711  and  _712
REMARK  278  A    between atoms: _712  and  _713
REMARK  279  A    between atoms: _722  and  _724
REMARK  280  A    between atoms: _724  and  _725
REMARK  281  A    between atoms: _724  and  _727
REMARK  282  A    between atoms: _727  and  _728
REMARK  283  A    between atoms: _738  and  _740
REMARK  284  A    between atoms: _740  and  _741
REMARK  285  A    between atoms: _740  and  _743
REMARK  286  A    between atoms: _743  and  _744
REMARK  287  A    between atoms: _747  and  _749
REMARK  288  A    between atoms: _749  and  _750
REMARK  289  A    between atoms: _753  and  _755
REMARK  290  A    between atoms: _755  and  _756
REMARK  291  A    between atoms: _755  and  _758
REMARK  292  A    between atoms: _758  and  _759
REMARK  293  A    between atoms: _762  and  _764
REMARK  294  A    between atoms: _764  and  _765
REMARK  295  A    between atoms: _764  and  _767
REMARK  296  A    between atoms: _767  and  _768
REMARK  297  A    between atoms: _768  and  _769
REMARK  298  A    between atoms: _769  and  _770
REMARK  299  A    between atoms: _770  and  _771
REMARK  300  A    between atoms: _775  and  _777
REMARK  301  A    between atoms: _777  and  _778
REMARK  302  A    between atoms: _777  and  _780
REMARK  303  A    between atoms: _780  and  _781
REMARK                            x       y       z     vdW  Elec       q    Type
REMARK                         _______ _______ _______ _____ _____    ______ ____
ROOT
ATOM      1  CA  LYS A   1     -25.036  -2.274  -4.744  0.00  0.00    +0.145 C 
ENDROOT
BRANCH   1   2
ATOM      2  C   LYS A   1     -23.760  -2.269  -3.890  0.00  0.00    +0.238 C 
ATOM      3  O   LYS A   1     -23.701  -2.899  -2.834  0.00  0.00    -0.274 OA
ATOM      4  N   ALA A   2     -22.746  -1.553  -4.384  0.00  0.00    -0.298 N 
ATOM      5  H   ALA A   2     -22.922  -1.011  -5.254  0.00  0.00    +0.150 HD
BRANCH   4   6
ATOM      6  CA  ALA A   2     -21.401  -1.470  -3.796  0.00  0.00    +0.137 C 
ATOM      7  CB  ALA A   2     -20.696  -0.209  -4.314  0.00  0.00    +0.030 C 
BRANCH   6   8
ATOM      8  C   ALA A   2     -21.167  -1.591  -2.288  0.00  0.00    +0.227 C 
ATOM      9  O   ALA A   2     -20.369  -2.422  -1.852  0.00  0.00    -0.286 OA
ENDBRANCH   6   8
ENDBRANCH   4   6
ENDBRANCH   1   2
BRANCH   1  10
ATOM     10  N   LYS A   1     -26.345  -2.059  -4.138  0.00  0.00    -0.238 NA
ATOM     11  H   LYS A   1     -27.047  -2.824  -4.192  0.00  0.00    +0.142 HD
ENDBRANCH   1  10
BRANCH   1  12
ATOM     12  CB  LYS A   1     -24.873  -1.306  -5.921  0.00  0.00    +0.026 C 
BRANCH  12  13
ATOM     13  CG  LYS A   1     -25.893  -1.551  -7.033  0.00  0.00    -0.000 C 
BRANCH  13  14
ATOM     14  CD  LYS A   1     -25.738  -0.568  -8.184  0.00  0.00    -0.024 C 
BRANCH  14  15
ATOM     15  CE  LYS A   1     -26.774  -0.830  -9.263  0.00  0.00    -0.086 C 
BRANCH  15  16
ATOM     16  NZ  LYS A   1     -26.642   0.121 -10.405  0.00  0.00    +0.380 N 
ATOM     17  HZ1 LYS A   1     -26.769   1.094 -10.061  0.00  0.00    -0.089 HD
ATOM     18  HZ2 LYS A   1     -25.698   0.023 -10.829  0.00  0.00    -0.089 HD
ATOM     19  HZ3 LYS A   1     -27.368  -0.093 -11.118  0.00  0.00    -0.089 HD
ENDBRANCH  15  16
ENDBRANCH  14  15
ENDBRANCH  13  14
ENDBRANCH  12  13
ENDBRANCH   1  12
TORSDOF 9
REMARK  Name = ../refined-set-2016/1y3p/1y3p_pocket.pdb
REMARK  303 active torsions:
REMARK  status: ('A' for Active; 'I' for Inactive)
REMARK    1  A    between atoms: _1  and  _3
REMARK    2  A    between atoms: _3  and  _4
REMARK    3  A    between atoms: _3  and  _6
REMARK    4  A    between atoms: _6  and  _7
REMARK    5  A    between atoms: _12  and  _14
REMARK    6  A    between atoms: _14  and  _15
REMARK    7  A    between atoms: _14  and  _17
REMARK    8  A    between atoms: _17  and  _18
REMARK    9  A    between atoms: _24  and  _26
REMARK   10  A    between atoms: _26  and  _27
REMARK   11  A    between atoms: _26  and  _29
REMARK   12  A    between atoms: _29  and  _30
REMARK   13  A    between atoms: _30  and  _31
REMARK   14  A    between atoms: _31  and  _32
REMARK   15  A    between atoms: _41  and  _43
REMARK   16  A    between atoms: _43  and  _44
REMARK   17  A    between atoms: _43  and  _46
REMARK   18  A    between atoms: _46  and  _47
REMARK   19  A    between atoms: _50  and  _52
REMARK   20  A    between atoms: _52  and  _53
REMARK   21  A    between atoms: _52  and  _55
REMARK   22  A    between atoms: _55  and  _56
REMARK   23  A    between atoms: _56  and  _57
REMARK   24  A    between atoms: _57  and  _58
REMARK   25  A    between atoms: _58  and  _59
REMARK   26  A    between atoms: _63  and  _65
REMARK   27  A    between atoms: _65  and  _66
REMARK   28  A    between atoms: _65  and  _68
REMARK   29  A    between atoms: _68  and  _69
REMARK   30  A    between atoms: _79  and  _81
REMARK   31  A    between atoms: _81  and  _82
REMARK   32  A    between atoms: _81  and  _84
REMARK   33  A    between atoms: _84  and  _85
REMARK   34  A    between atoms: _88  and  _90
REMARK   35  A    between atoms: _90  and  _91
REMARK   36  A    between atoms: _90  and  _93
REMARK   37  A    between atoms: _93  and  _94
REMARK   38  A    between atoms: _99  and  _101
REMARK   39  A    between atoms: _101  and  _102
REMARK   40  A    between atoms: _101  and  _104
REMARK   41  A    between atoms: _104  and  _105
REMARK   42  A    between atoms: _107  and  _109
REMARK   43  A    between atoms: _109  and  _110
REMARK   44  A    between atoms: _109  and  _112
REMARK   45  A    between atoms: _112  and  _113
REMARK   46  A    between atoms: _113  and  _114
REMARK   47  A    between atoms: _119  and  _121
REMARK   48  A    between atoms: _121  and  _122
REMARK   49  A    between atoms: _121  and  _124
REMARK   50  A    between atoms: _124  and  _125
REMARK   51  A    between atoms: _125  and  _126
REMARK   52  A    between atoms: _129  and  _131
REMARK   53  A    between atoms: _131  and  _132
REMARK   54  A    between atoms: _134  and  _136
REMARK   55  A    between atoms: _136  and  _137
REMARK   56  A    between atoms: _136  and  _139
REMARK   57  A    between atoms: _139  and  _140
REMARK   58  A    between atoms: _143  and  _145
REMARK   59  A    between atoms: _145  and  _146
REMARK   60  A    between atoms: _145  and  _148
REMARK   61  A    between atoms: _148  and  _149
REMARK   62  A    between atoms: _154  and  _156
REMARK   63  A    between atoms: _156  and  _157
REMARK   64  A    between atoms: _156  and  _159
REMARK   65  A    between atoms: _159  and  _160
REMARK   66  A    between atoms: _163  and  _165
REMARK   67  A    between atoms: _165  and  _166
REMARK   68  A    between atoms: _165  and  _168
REMARK   69  A    between atoms: _168  and  _169
REMARK   70  A    between atoms: _169  and  _170
REMARK   71  A    between atoms: _170  and  _171
REMARK   72  A    between atoms: _171  and  _172
REMARK   73  A    between atoms: _176  and  _178
REMARK   74  A    between atoms: _178  and  _179
REMARK   75  A    between atoms: _178  and  _181
REMARK   76  A    between atoms: _181  and  _182
REMARK   77  A    between atoms: _187  and  _188
REMARK   78  A    between atoms: _191  and  _192
REMARK   79  A    between atoms: _197  and  _199
REMARK   80  A    between atoms: _199  and  _200
REMARK   81  A    between atoms: _199  and  _202
REMARK   82  A    between atoms: _202  and  _203
REMARK   83  A    between atoms: _206  and  _208
REMARK   84  A    between atoms: _208  and  _209
REMARK   85  A    between atoms: _211  and  _213
REMARK   86  A    between atoms: _213  and  _214
REMARK   87  A    between atoms: _213  and  _216
REMARK   88  A    between atoms: _219  and  _221
REMARK   89  A    between atoms: _221  and  _222
REMARK   90  A    between atoms: _221  and  _224
REMARK   91  A    between atoms: _224  and  _225
REMARK   92  A    between atoms: _227  and  _229
REMARK   93  A    between atoms: _229  and  _230
REMARK   94  A    between atoms: _229  and  _232
REMARK   95  A    between atoms: _232  and  _233
REMARK   96  A    between atoms: _233  and  _234
REMARK   97  A    between atoms: _234  and  _235
REMARK   98  A    between atoms: _244  and  _246
REMARK   99  A    between atoms: _246  and  _247
REMARK  100  A    between atoms: _246  and  _249
REMARK  101  A    between atoms: _249  and  _250
REMARK  102  A    between atoms: _255  and  _257
REMARK  103  A    between atoms: _257  and  _258
REMARK  104  A    between atoms: _257  and  _260
REMARK  105  A    between atoms: _260  and  _261
REMARK  106  A    between atoms: _261  and  _262
REMARK  107  A    between atoms: _262  and  _263
REMARK  108  A    between atoms: _272  and  _274
REMARK  109  A    between atoms: _274  and  _275
REMARK  110  A    between atoms: _274  and  _277
REMARK  111  A    between atoms: _277  and  _278
REMARK  112  A    between atoms: _282  and  _283
REMARK  113  A    between atoms: _288  and  _290
REMARK  114  A    between atoms: _290  and  _291
REMARK  115  A    between atoms: _290  and  _293
REMARK  116  A    between atoms: _293  and  _294
REMARK  117  A    between atoms: _294  and  _295
REMARK  118  A    between atoms: _298  and  _300
REMARK  119  A    between atoms: _300  and  _301
REMARK  120  A    between atoms: _300  and  _303
REMARK  121  A    between atoms: _303  and  _304
REMARK  122  A    between atoms: _304  and  _305
REMARK  123  A    between atoms: _308  and  _310
REMARK  124  A    between atoms: _310  and  _311
REMARK  125  A    between atoms: _310  and  _313
REMARK  126  A    between atoms: _313  and  _314
REMARK  127  A    between atoms: _319  and  _321
REMARK  128  A    between atoms: _321  and  _322
REMARK  129  A    between atoms: _321  and  _324
REMARK  130  A    between atoms: _324  and  _325
REMARK  131  A    between atoms: _328  and  _330
REMARK  132  A    between atoms: _330  and  _331
REMARK  133  A    between atoms: _330  and  _333
REMARK  134  A    between atoms: _333  and  _334
REMARK  135  A    between atoms: _344  and  _346
REMARK  136  A    between atoms: _346  and  _347
REMARK  137  A    between atoms: _346  and  _349
REMARK  138  A    between atoms: _349  and  _350
REMARK  139  A    between atoms: _350  and  _351
REMARK  140  A    between atoms: _353  and  _355
REMARK  141  A    between atoms: _355  and  _356
REMARK  142  A    between atoms: _355  and  _358
REMARK  143  A    between atoms: _358  and  _359
REMARK  144  A    between atoms: _359  and  _360
REMARK  145  A    between atoms: _360  and  _361
REMARK  146  A    between atoms: _361  and  _362
REMARK  147  A    between atoms: _366  and  _368
REMARK  148  A    between atoms: _368  and  _369
REMARK  149  A    between atoms: _372  and  _374
REMARK  150  A    between atoms: _374  and  _375
REMARK  151  A    between atoms: _374  and  _377
REMARK  152  A    between atoms: _377  and  _378
REMARK  153  A    between atoms: _378  and  _379
REMARK  154  A    between atoms: _379  and  _380
REMARK  155  A    between atoms: _389  and  _391
REMARK  156  A    between atoms: _391  and  _392
REMARK  157  A    between atoms: _391  and  _394
REMARK  158  A    between atoms: _394  and  _395
REMARK  159  A    between atoms: _398  and  _400
REMARK  160  A    between atoms: _400  and  _401
REMARK  161  A    between atoms: _400  and  _403
REMARK  162  A    between atoms: _403  and  _404
REMARK  163  A    between atoms: _414  and  _416
REMARK  164  A    between atoms: _416  and  _417
REMARK  165  A    between atoms: _416  and  _419
REMARK  166  A    between atoms: _419  and  _420
REMARK  167  A    between atoms: _426  and  _428
REMARK  168  A    between atoms: _428  and  _429
REMARK  169  A    between atoms: _432  and  _434
REMARK  170  A    between atoms: _434  and  _435
REMARK  171  A    between atoms: _434  and  _437
REMARK  172  A    between atoms: _437  and  _438
REMARK  173  A    between atoms: _440  and  _442
REMARK  174  A    between atoms: _442  and  _443
REMARK  175  A    between atoms: _442  and  _445
REMARK  176  A    between atoms: _445  and  _446
REMARK  177  A    between atoms: _449  and  _451
REMARK  178  A    between atoms: _451  and  _452
REMARK  179  A    between atoms: _455  and  _457
REMARK  180  A    between atoms: _457  and  _458
REMARK  181  A    between atoms: _457  and  _460
REMARK  182  A    between atoms: _460  and  _461
REMARK  183  A    between atoms: _464  and  _466
REMARK  184  A    between atoms: _466  and  _467
REMARK  185  A    between atoms: _466  and  _469
REMARK  186  A    between atoms: _469  and  _470
REMARK  187  A    between atoms: _473  and  _475
REMARK  188  A    between atoms: _475  and  _476
REMARK  189  A    between atoms: _475  and  _478
REMARK  190  A    between atoms: _478  and  _479
REMARK  191  A    between atoms: _479  and  _480
REMARK  192  A    between atoms: _480  and  _481
REMARK  193  A    between atoms: _490  and  _492
REMARK  194  A    between atoms: _492  and  _493
REMARK  195  A    between atoms: _492  and  _495
REMARK  196  A    between atoms: _495  and  _496
REMARK  197  A    between atoms: _496  and  _497
REMARK  198  A    between atoms: _502  and  _504
REMARK  199  A    between atoms: _504  and  _505
REMARK  200  A    between atoms: _504  and  _507
REMARK  201  A    between atoms: _507  and  _508
REMARK  202  A    between atoms: _508  and  _509
REMARK  203  A    between atoms: _509  and  _510
REMARK  204  A    between atoms: _520  and  _521
REMARK  205  A    between atoms: _526  and  _528
REMARK  206  A    between atoms: _528  and  _529
REMARK  207  A    between atoms: _528  and  _531
REMARK  208  A    between atoms: _531  and  _532
REMARK  209  A    between atoms: _535  and  _537
REMARK  210  A    between atoms: _537  and  _538
REMARK  211  A    between atoms: _537  and  _540
REMARK  212  A    between atoms: _540  and  _541
REMARK  213  A    between atoms: _547  and  _548
REMARK  214  A    between atoms: _553  and  _555
REMARK  215  A    between atoms: _555  and  _556
REMARK  216  A    between atoms: _555  and  _558
REMARK  217  A    between atoms: _561  and  _563
REMARK  218  A    between atoms: _563  and  _564
REMARK  219  A    between atoms: _563  and  _566
REMARK  220  A    between atoms: _566  and  _567
REMARK  221  A    between atoms: _572  and  _574
REMARK  222  A    between atoms: _574  and  _575
REMARK  223  A    between atoms: _574  and  _577
REMARK  224  A    between atoms: _577  and  _578
REMARK  225  A    between atoms: _583  and  _585
REMARK  226  A    between atoms: _585  and  _586
REMARK  227  A    between atoms: _585  and  _588
REMARK  228  A    between atoms: _588  and  _589
REMARK  229  A    between atoms: _589  and  _590
REMARK  230  A    between atoms: _592  and  _594
REMARK  231  A    between atoms: _594  and  _595
REMARK  232  A    between atoms: _594  and  _597
REMARK  233  A    between atoms: _597  and  _598
REMARK  234  A    between atoms: _603  and  _604
REMARK  235  A    between atoms: _606  and  _608
REMARK  236  A    between atoms: _608  and  _609
REMARK  237  A    between atoms: _608  and  _611
REMARK  238  A    between atoms: _611  and  _612
REMARK  239  A    between atoms: _612  and  _613
REMARK  240  A    between atoms: _618  and  _620
REMARK  241  A    between atoms: _620  and  _621
REMARK  242  A    between atoms: _620  and  _623
REMARK  243  A    between atoms: _623  and  _624
REMARK  244  A    between atoms: _628  and  _629
REMARK  245  A    between atoms: _634  and  _636
REMARK  246  A    between atoms: _636  and  _637
REMARK  247  A    between atoms: _636  and  _639
REMARK  248  A    between atoms: _639  and  _640
REMARK  249  A    between atoms: _646  and  _648
REMARK  250  A    between atoms: _648  and  _649
REMARK  251  A    between atoms: _648  and  _651
REMARK  252  A    between atoms: _651  and  _652
REMARK  253  A    between atoms: _652  and  _653
REMARK  254  A    between atoms: _658  and  _660
REMARK  255  A    between atoms: _660  and  _661
REMARK  256  A    between atoms: _660  and  _663
REMARK  257  A    between atoms: _663  and  _664
REMARK  258  A    between atoms: _667  and  _669
REMARK  259  A    between atoms: _669  and  _670
REMARK  260  A    between atoms: _669  and  _672
REMARK  261  A    between atoms: _672  and  _673
REMARK  262  A    between atoms: _678  and  _679
REMARK  263  A    between atoms: _681  and  _683
REMARK  264  A    between atoms: _683  and  _684
REMARK  265  A    between atoms: _683  and  _686
REMARK  266  A    between atoms: _686  and  _687
REMARK  267  A    between atoms: _692  and  _693
REMARK  268  A    between atoms: _695  and  _697
REMARK  269  A    between atoms: _697  and  _698
REMARK  270  A    between atoms: _697  and  _700
REMARK  271  A    between atoms: _700  and  _701
REMARK  272  A    between atoms: _701  and  _702
REMARK  273  A    between atoms: _705  and  _707
REMARK  274  A    between atoms: _707  and  _708
REMARK  275  A    between atoms: _707  and  _710
REMARK  276  A    between atoms: _710  and  _711
REMARK  277  A    between atoms: _711  and  _712
REMARK  278  A    between atoms: _712  and  _713
REMARK  279  A    between atoms: _722  and  _724
REMARK  280  A    between atoms: _724  and  _725
REMARK  281  A    between atoms: _724  and  _727
REMARK  282  A    between atoms: _727  and  _728
REMARK  283  A    between atoms: _738  and  _740
REMARK  284  A    between atoms: _740  and  _741
REMARK  285  A    between atoms: _740  and  _743
REMARK  286  A    between atoms: _743  and  _744
REMARK  287  A    between atoms: _747  and  _749
REMARK  288  A    between atoms: _749  and  _750
REMARK  289  A    between atoms: _753  and  _755
REMARK  290  A    between atoms: _755  and  _756
REMARK  291  A    between atoms: _755  and  _758
REMARK  292  A    between atoms: _758  and  _759
REMARK  293  A    between atoms: _762  and  _764
REMARK  294  A    between atoms: _764  and  _765
REMARK  295  A    between atoms: _764  and  _767
REMARK  296  A    between atoms: _767  and  _768
REMARK  297  A    between atoms: _768  and  _769
REMARK  298  A    between atoms: _769  and  _770
REMARK  299  A    between atoms: _770  and  _771
REMARK  300  A    between atoms: _775  and  _777
REMARK  301  A    between atoms: _777  and  _778
REMARK  302  A    between atoms: _777  and  _780
REMARK  303  A    between atoms: _780  and  _781
REMARK                            x       y       z     vdW  Elec       q    Type
REMARK                         _______ _______ _______ _____ _____    ______ ____
ROOT
ATOM      1  NE  ARG A   1     -18.665  -6.640   0.910  0.00  0.00    -0.265 N 
ATOM      2  HE  ARG A   1     -18.891  -5.625   0.912  0.00  0.00    +0.259 HD
ATOM      3  CZ  ARG A   1     -17.490  -7.016   0.413  0.00  0.00    +0.342 C 
ATOM      4  NH2 ARG A   1     -17.158  -8.304   0.380  0.00  0.00    -0.292 N 
ATOM      5 HH21 ARG A   1     -17.818  -9.021   0.744  0.00  0.00    +0.255 HD
ATOM      6 HH22 ARG A   1     -16.238  -8.594  -0.009  0.00  0.00    +0.255 HD
ATOM      7  NH1 ARG A   1     -16.638  -6.103  -0.033  0.00  0.00    -0.292 N 
ATOM      8 HH11 ARG A   1     -16.889  -5.094   0.006  0.00  0.00    +0.255 HD
ATOM      9 HH12 ARG A   1     -15.719  -6.395  -0.422  0.00  0.00    +0.255 HD
ENDROOT
BRANCH   1  10
ATOM     10  CD  ARG A   1     -19.659  -7.565   1.454  0.00  0.00    +0.174 C 
BRANCH  10  11
ATOM     11  CG  ARG A   1     -20.965  -6.854   1.825  0.00  0.00    +0.045 C 
BRANCH  11  12
ATOM     12  CB  ARG A   1     -20.768  -5.769   2.881  0.00  0.00    +0.029 C 
BRANCH  12  13
ATOM     13  CA  ARG A   1     -22.068  -5.043   3.248  0.00  0.00    +0.133 C 
BRANCH  13  14
ATOM     14  N   ARG A   1     -22.624  -4.398   2.064  0.00  0.00    -0.239 NA
ATOM     15  H   ARG A   1     -22.037  -4.288   1.212  0.00  0.00    +0.142 HD
ENDBRANCH  13  14
BRANCH  13  16
ATOM     16  C   ARG A   1     -21.847  -4.070   4.412  0.00  0.00    +0.224 C 
ATOM     17  O   ARG A   1     -22.271  -4.336   5.536  0.00  0.00    -0.287 OA
ENDBRANCH  13  16
ENDBRANCH  12  13
ENDBRANCH  11  12
ENDBRANCH  10  11
ENDBRANCH   1  10
TORSDOF 6
REMARK  Name = ../refined-set-2016/1y3p/1y3p_pocket.pdb
REMARK  303 active torsions:
REMARK  status: ('A' for Active; 'I' for Inactive)
REMARK    1  A    between atoms: _1  and  _3
REMARK    2  A    between atoms: _3  and  _4
REMARK    3  A    between atoms: _3  and  _6
REMARK    4  A    between atoms: _6  and  _7
REMARK    5  A    between atoms: _12  and  _14
REMARK    6  A    between atoms: _14  and  _15
REMARK    7  A    between atoms: _14  and  _17
REMARK    8  A    between atoms: _17  and  _18
REMARK    9  A    between atoms: _24  and  _26
REMARK   10  A    between atoms: _26  and  _27
REMARK   11  A    between atoms: _26  and  _29
REMARK   12  A    between atoms: _29  and  _30
REMARK   13  A    between atoms: _30  and  _31
REMARK   14  A    between atoms: _31  and  _32
REMARK   15  A    between atoms: _41  and  _43
REMARK   16  A    between atoms: _43  and  _44
REMARK   17  A    between atoms: _43  and  _46
REMARK   18  A    between atoms: _46  and  _47
REMARK   19  A    between atoms: _50  and  _52
REMARK   20  A    between atoms: _52  and  _53
REMARK   21  A    between atoms: _52  and  _55
REMARK   22  A    between atoms: _55  and  _56
REMARK   23  A    between atoms: _56  and  _57
REMARK   24  A    between atoms: _57  and  _58
REMARK   25  A    between atoms: _58  and  _59
REMARK   26  A    between atoms: _63  and  _65
REMARK   27  A    between atoms: _65  and  _66
REMARK   28  A    between atoms: _65  and  _68
REMARK   29  A    between atoms: _68  and  _69
REMARK   30  A    between atoms: _79  and  _81
REMARK   31  A    between atoms: _81  and  _82
REMARK   32  A    between atoms: _81  and  _84
REMARK   33  A    between atoms: _84  and  _85
REMARK   34  A    between atoms: _88  and  _90
REMARK   35  A    between atoms: _90  and  _91
REMARK   36  A    between atoms: _90  and  _93
REMARK   37  A    between atoms: _93  and  _94
REMARK   38  A    between atoms: _99  and  _101
REMARK   39  A    between atoms: _101  and  _102
REMARK   40  A    between atoms: _101  and  _104
REMARK   41  A    between atoms: _104  and  _105
REMARK   42  A    between atoms: _107  and  _109
REMARK   43  A    between atoms: _109  and  _110
REMARK   44  A    between atoms: _109  and  _112
REMARK   45  A    between atoms: _112  and  _113
REMARK   46  A    between atoms: _113  and  _114
REMARK   47  A    between atoms: _119  and  _121
REMARK   48  A    between atoms: _121  and  _122
REMARK   49  A    between atoms: _121  and  _124
REMARK   50  A    between atoms: _124  and  _125
REMARK   51  A    between atoms: _125  and  _126
REMARK   52  A    between atoms: _129  and  _131
REMARK   53  A    between atoms: _131  and  _132
REMARK   54  A    between atoms: _134  and  _136
REMARK   55  A    between atoms: _136  and  _137
REMARK   56  A    between atoms: _136  and  _139
REMARK   57  A    between atoms: _139  and  _140
REMARK   58  A    between atoms: _143  and  _145
REMARK   59  A    between atoms: _145  and  _146
REMARK   60  A    between atoms: _145  and  _148
REMARK   61  A    between atoms: _148  and  _149
REMARK   62  A    between atoms: _154  and  _156
REMARK   63  A    between atoms: _156  and  _157
REMARK   64  A    between atoms: _156  and  _159
REMARK   65  A    between atoms: _159  and  _160
REMARK   66  A    between atoms: _163  and  _165
REMARK   67  A    between atoms: _165  and  _166
REMARK   68  A    between atoms: _165  and  _168
REMARK   69  A    between atoms: _168  and  _169
REMARK   70  A    between atoms: _169  and  _170
REMARK   71  A    between atoms: _170  and  _171
REMARK   72  A    between atoms: _171  and  _172
REMARK   73  A    between atoms: _176  and  _178
REMARK   74  A    between atoms: _178  and  _179
REMARK   75  A    between atoms: _178  and  _181
REMARK   76  A    between atoms: _181  and  _182
REMARK   77  A    between atoms: _187  and  _188
REMARK   78  A    between atoms: _191  and  _192
REMARK   79  A    between atoms: _197  and  _199
REMARK   80  A    between atoms: _199  and  _200
REMARK   81  A    between atoms: _199  and  _202
REMARK   82  A    between atoms: _202  and  _203
REMARK   83  A    between atoms: _206  and  _208
REMARK   84  A    between atoms: _208  and  _209
REMARK   85  A    between atoms: _211  and  _213
REMARK   86  A    between atoms: _213  and  _214
REMARK   87  A    between atoms: _213  and  _216
REMARK   88  A    between atoms: _219  and  _221
REMARK   89  A    between atoms: _221  and  _222
REMARK   90  A    between atoms: _221  and  _224
REMARK   91  A    between atoms: _224  and  _225
REMARK   92  A    between atoms: _227  and  _229
REMARK   93  A    between atoms: _229  and  _230
REMARK   94  A    between atoms: _229  and  _232
REMARK   95  A    between atoms: _232  and  _233
REMARK   96  A    between atoms: _233  and  _234
REMARK   97  A    between atoms: _234  and  _235
REMARK   98  A    between atoms: _244  and  _246
REMARK   99  A    between atoms: _246  and  _247
REMARK  100  A    between atoms: _246  and  _249
REMARK  101  A    between atoms: _249  and  _250
REMARK  102  A    between atoms: _255  and  _257
REMARK  103  A    between atoms: _257  and  _258
REMARK  104  A    between atoms: _257  and  _260
REMARK  105  A    between atoms: _260  and  _261
REMARK  106  A    between atoms: _261  and  _262
REMARK  107  A    between atoms: _262  and  _263
REMARK  108  A    between atoms: _272  and  _274
REMARK  109  A    between atoms: _274  and  _275
REMARK  110  A    between atoms: _274  and  _277
REMARK  111  A    between atoms: _277  and  _278
REMARK  112  A    between atoms: _282  and  _283
REMARK  113  A    between atoms: _288  and  _290
REMARK  114  A    between atoms: _290  and  _291
REMARK  115  A    between atoms: _290  and  _293
REMARK  116  A    between atoms: _293  and  _294
REMARK  117  A    between atoms: _294  and  _295
REMARK  118  A    between atoms: _298  and  _300
REMARK  119  A    between atoms: _300  and  _301
REMARK  120  A    between atoms: _300  and  _303
REMARK  121  A    between atoms: _303  and  _304
REMARK  122  A    between atoms: _304  and  _305
REMARK  123  A    between atoms: _308  and  _310
REMARK  124  A    between atoms: _310  and  _311
REMARK  125  A    between atoms: _310  and  _313
REMARK  126  A    between atoms: _313  and  _314
REMARK  127  A    between atoms: _319  and  _321
REMARK  128  A    between atoms: _321  and  _322
REMARK  129  A    between atoms: _321  and  _324
REMARK  130  A    between atoms: _324  and  _325
REMARK  131  A    between atoms: _328  and  _330
REMARK  132  A    between atoms: _330  and  _331
REMARK  133  A    between atoms: _330  and  _333
REMARK  134  A    between atoms: _333  and  _334
REMARK  135  A    between atoms: _344  and  _346
REMARK  136  A    between atoms: _346  and  _347
REMARK  137  A    between atoms: _346  and  _349
REMARK  138  A    between atoms: _349  and  _350
REMARK  139  A    between atoms: _350  and  _351
REMARK  140  A    between atoms: _353  and  _355
REMARK  141  A    between atoms: _355  and  _356
REMARK  142  A    between atoms: _355  and  _358
REMARK  143  A    between atoms: _358  and  _359
REMARK  144  A    between atoms: _359  and  _360
REMARK  145  A    between atoms: _360  and  _361
REMARK  146  A    between atoms: _361  and  _362
REMARK  147  A    between atoms: _366  and  _368
REMARK  148  A    between atoms: _368  and  _369
REMARK  149  A    between atoms: _372  and  _374
REMARK  150  A    between atoms: _374  and  _375
REMARK  151  A    between atoms: _374  and  _377
REMARK  152  A    between atoms: _377  and  _378
REMARK  153  A    between atoms: _378  and  _379
REMARK  154  A    between atoms: _379  and  _380
REMARK  155  A    between atoms: _389  and  _391
REMARK  156  A    between atoms: _391  and  _392
REMARK  157  A    between atoms: _391  and  _394
REMARK  158  A    between atoms: _394  and  _395
REMARK  159  A    between atoms: _398  and  _400
REMARK  160  A    between atoms: _400  and  _401
REMARK  161  A    between atoms: _400  and  _403
REMARK  162  A    between atoms: _403  and  _404
REMARK  163  A    between atoms: _414  and  _416
REMARK  164  A    between atoms: _416  and  _417
REMARK  165  A    between atoms: _416  and  _419
REMARK  166  A    between atoms: _419  and  _420
REMARK  167  A    between atoms: _426  and  _428
REMARK  168  A    between atoms: _428  and  _429
REMARK  169  A    between atoms: _432  and  _434
REMARK  170  A    between atoms: _434  and  _435
REMARK  171  A    between atoms: _434  and  _437
REMARK  172  A    between atoms: _437  and  _438
REMARK  173  A    between atoms: _440  and  _442
REMARK  174  A    between atoms: _442  and  _443
REMARK  175  A    between atoms: _442  and  _445
REMARK  176  A    between atoms: _445  and  _446
REMARK  177  A    between atoms: _449  and  _451
REMARK  178  A    between atoms: _451  and  _452
REMARK  179  A    between atoms: _455  and  _457
REMARK  180  A    between atoms: _457  and  _458
REMARK  181  A    between atoms: _457  and  _460
REMARK  182  A    between atoms: _460  and  _461
REMARK  183  A    between atoms: _464  and  _466
REMARK  184  A    between atoms: _466  and  _467
REMARK  185  A    between atoms: _466  and  _469
REMARK  186  A    between atoms: _469  and  _470
REMARK  187  A    between atoms: _473  and  _475
REMARK  188  A    between atoms: _475  and  _476
REMARK  189  A    between atoms: _475  and  _478
REMARK  190  A    between atoms: _478  and  _479
REMARK  191  A    between atoms: _479  and  _480
REMARK  192  A    between atoms: _480  and  _481
REMARK  193  A    between atoms: _490  and  _492
REMARK  194  A    between atoms: _492  and  _493
REMARK  195  A    between atoms: _492  and  _495
REMARK  196  A    between atoms: _495  and  _496
REMARK  197  A    between atoms: _496  and  _497
REMARK  198  A    between atoms: _502  and  _504
REMARK  199  A    between atoms: _504  and  _505
REMARK  200  A    between atoms: _504  and  _507
REMARK  201  A    between atoms: _507  and  _508
REMARK  202  A    between atoms: _508  and  _509
REMARK  203  A    between atoms: _509  and  _510
REMARK  204  A    between atoms: _520  and  _521
REMARK  205  A    between atoms: _526  and  _528
REMARK  206  A    between atoms: _528  and  _529
REMARK  207  A    between atoms: _528  and  _531
REMARK  208  A    between atoms: _531  and  _532
REMARK  209  A    between atoms: _535  and  _537
REMARK  210  A    between atoms: _537  and  _538
REMARK  211  A    between atoms: _537  and  _540
REMARK  212  A    between atoms: _540  and  _541
REMARK  213  A    between atoms: _547  and  _548
REMARK  214  A    between atoms: _553  and  _555
REMARK  215  A    between atoms: _555  and  _556
REMARK  216  A    between atoms: _555  and  _558
REMARK  217  A    between atoms: _561  and  _563
REMARK  218  A    between atoms: _563  and  _564
REMARK  219  A    between atoms: _563  and  _566
REMARK  220  A    between atoms: _566  and  _567
REMARK  221  A    between atoms: _572  and  _574
REMARK  222  A    between atoms: _574  and  _575
REMARK  223  A    between atoms: _574  and  _577
REMARK  224  A    between atoms: _577  and  _578
REMARK  225  A    between atoms: _583  and  _585
REMARK  226  A    between atoms: _585  and  _586
REMARK  227  A    between atoms: _585  and  _588
REMARK  228  A    between atoms: _588  and  _589
REMARK  229  A    between atoms: _589  and  _590
REMARK  230  A    between atoms: _592  and  _594
REMARK  231  A    between atoms: _594  and  _595
REMARK  232  A    between atoms: _594  and  _597
REMARK  233  A    between atoms: _597  and  _598
REMARK  234  A    between atoms: _603  and  _604
REMARK  235  A    between atoms: _606  and  _608
REMARK  236  A    between atoms: _608  and  _609
REMARK  237  A    between atoms: _608  and  _611
REMARK  238  A    between atoms: _611  and  _612
REMARK  239  A    between atoms: _612  and  _613
REMARK  240  A    between atoms: _618  and  _620
REMARK  241  A    between atoms: _620  and  _621
REMARK  242  A    between atoms: _620  and  _623
REMARK  243  A    between atoms: _623  and  _624
REMARK  244  A    between atoms: _628  and  _629
REMARK  245  A    between atoms: _634  and  _636
REMARK  246  A    between atoms: _636  and  _637
REMARK  247  A    between atoms: _636  and  _639
REMARK  248  A    between atoms: _639  and  _640
REMARK  249  A    between atoms: _646  and  _648
REMARK  250  A    between atoms: _648  and  _649
REMARK  251  A    between atoms: _648  and  _651
REMARK  252  A    between atoms: _651  and  _652
REMARK  253  A    between atoms: _652  and  _653
REMARK  254  A    between atoms: _658  and  _660
REMARK  255  A    between atoms: _660  and  _661
REMARK  256  A    between atoms: _660  and  _663
REMARK  257  A    between atoms: _663  and  _664
REMARK  258  A    between atoms: _667  and  _669
REMARK  259  A    between atoms: _669  and  _670
REMARK  260  A    between atoms: _669  and  _672
REMARK  261  A    between atoms: _672  and  _673
REMARK  262  A    between atoms: _678  and  _679
REMARK  263  A    between atoms: _681  and  _683
REMARK  264  A    between atoms: _683  and  _684
REMARK  265  A    between atoms: _683  and  _686
REMARK  266  A    between atoms: _686  and  _687
REMARK  267  A    between atoms: _692  and  _693
REMARK  268  A    between atoms: _695  and  _697
REMARK  269  A    between atoms: _697  and  _698
REMARK  270  A    between atoms: _697  and  _700
REMARK  271  A    between atoms: _700  and  _701
REMARK  272  A    between atoms: _701  and  _702
REMARK  273  A    between atoms: _705  and  _707
REMARK  274  A    between atoms: _707  and  _708
REMARK  275  A    between atoms: _707  and  _710
REMARK  276  A    between atoms: _710  and  _711
REMARK  277  A    between atoms: _711  and  _712
REMARK  278  A    between atoms: _712  and  _713
REMARK  279  A    between atoms: _722  and  _724
REMARK  280  A    between atoms: _724  and  _725
REMARK  281  A    between atoms: _724  and  _727
REMARK  282  A    between atoms: _727  and  _728
REMARK  283  A    between atoms: _738  and  _740
REMARK  284  A    between atoms: _740  and  _741
REMARK  285  A    between atoms: _740  and  _743
REMARK  286  A    between atoms: _743  and  _744
REMARK  287  A    between atoms: _747  and  _749
REMARK  288  A    between atoms: _749  and  _750
REMARK  289  A    between atoms: _753  and  _755
REMARK  290  A    between atoms: _755  and  _756
REMARK  291  A    between atoms: _755  and  _758
REMARK  292  A    between atoms: _758  and  _759
REMARK  293  A    between atoms: _762  and  _764
REMARK  294  A    between atoms: _764  and  _765
REMARK  295  A    between atoms: _764  and  _767
REMARK  296  A    between atoms: _767  and  _768
REMARK  297  A    between atoms: _768  and  _769
REMARK  298  A    between atoms: _769  and  _770
REMARK  299  A    between atoms: _770  and  _771
REMARK  300  A    between atoms: _775  and  _777
REMARK  301  A    between atoms: _777  and  _778
REMARK  302  A    between atoms: _777  and  _780
REMARK  303  A    between atoms: _780  and  _781
REMARK                            x       y       z     vdW  Elec       q    Type
REMARK                         _______ _______ _______ _____ _____    ______ ____
ROOT
ATOM      1  C   PHE A   3     -13.379 -13.942   1.450  0.00  0.00    +0.241 C 
ATOM      2  O   PHE A   3     -13.742 -13.646   2.585  0.00  0.00    -0.273 OA
ATOM      3  N   ALA A   4     -12.291 -13.432   0.888  0.00  0.00    -0.297 N 
ATOM      4  H   ALA A   4     -12.055 -13.696  -0.090  0.00  0.00    +0.150 HD
ENDROOT
BRANCH   3   5
ATOM      5  CA  ALA A   4     -11.416 -12.509   1.606  0.00  0.00    +0.149 C 
ATOM      6  CB  ALA A   4     -10.212 -12.164   0.733  0.00  0.00    +0.031 C 
BRANCH   5   7
ATOM      7  C   ALA A   4     -12.063 -11.227   2.130  0.00  0.00    +0.241 C 
ATOM      8  O   ALA A   4     -12.058 -10.969   3.338  0.00  0.00    -0.273 OA
ATOM      9  N   SER A   5     -12.611 -10.415   1.236  0.00  0.00    -0.295 N 
ATOM     10  H   SER A   5     -12.605 -10.671   0.228  0.00  0.00    +0.150 HD
BRANCH   9  11
ATOM     11  CA  SER A   5     -13.223  -9.162   1.666  0.00  0.00    +0.178 C 
BRANCH  11  12
ATOM     12  C   SER A   5     -14.457  -9.368   2.550  0.00  0.00    +0.243 C 
ATOM     13  O   SER A   5     -14.683  -8.609   3.487  0.00  0.00    -0.273 OA
ATOM     14  N   THR A   6     -15.245 -10.401   2.269  0.00  0.00    -0.295 N 
ATOM     15  H   THR A   6     -15.003 -11.030   1.477  0.00  0.00    +0.150 HD
BRANCH  14  16
ATOM     16  CA  THR A   6     -16.448 -10.665   3.059  0.00  0.00    +0.176 C 
BRANCH  16  17
ATOM     17  C   THR A   6     -16.139 -11.113   4.492  0.00  0.00    +0.243 C 
ATOM     18  O   THR A   6     -16.800 -10.684   5.441  0.00  0.00    -0.273 OA
ATOM     19  N   ALA A   7     -15.135 -11.972   4.646  0.00  0.00    -0.297 N 
ATOM     20  H   ALA A   7     -14.614 -12.302   3.809  0.00  0.00    +0.150 HD
BRANCH  19  21
ATOM     21  CA  ALA A   7     -14.750 -12.461   5.966  0.00  0.00    +0.149 C 
ATOM     22  CB  ALA A   7     -13.763 -13.612   5.826  0.00  0.00    +0.031 C 
BRANCH  21  23
ATOM     23  C   ALA A   7     -14.137 -11.347   6.821  0.00  0.00    +0.241 C 
ATOM     24  O   ALA A   7     -14.197 -11.388   8.054  0.00  0.00    -0.273 OA
ATOM     25  N   LEU A   8     -13.539 -10.360   6.166  0.00  0.00    -0.298 N 
ATOM     26  H   LEU A   8     -13.507 -10.378   5.127  0.00  0.00    +0.150 HD
BRANCH  25  27
ATOM     27  CA  LEU A   8     -12.926  -9.250   6.886  0.00  0.00    +0.137 C 
BRANCH  27  28
ATOM     28  C   LEU A   8     -13.918  -8.490   7.755  0.00  0.00    +0.227 C 
ATOM     29  O   LEU A   8     -13.534  -7.883   8.749  0.00  0.00    -0.286 OA
ENDBRANCH  27  28
BRANCH  27  30
ATOM     30  CB  LEU A   8     -12.250  -8.276   5.911  0.00  0.00    +0.028 C 
BRANCH  30  31
ATOM     31  CG  LEU A   8     -10.936  -8.740   5.280  0.00  0.00    +0.002 C 
ATOM     32  CD2 LEU A   8      -9.952  -9.145   6.370  0.00  0.00    +0.000 C 
ATOM     33  CD1 LEU A   8     -10.352  -7.621   4.438  0.00  0.00    +0.000 C 
ENDBRANCH  30  31
ENDBRANCH  27  30
ENDBRANCH  25  27
ENDBRANCH  21  23
ENDBRANCH  19  21
ENDBRANCH  16  17
BRANCH  16  34
ATOM     34  CB  THR A   6     -17.329 -11.730   2.387  0.00  0.00    +0.137 C 
ATOM     35  CG2 THR A   6     -18.632 -11.927   3.176  0.00  0.00    +0.034 C 
BRANCH  34  36
ATOM     36  OG1 THR A   6     -17.648 -11.308   1.057  0.00  0.00    -0.382 OA
ATOM     37  HG1 THR A   6     -16.812 -11.193   0.539  0.00  0.00    +0.210 HD
ENDBRANCH  34  36
ENDBRANCH  16  34
ENDBRANCH  14  16
ENDBRANCH  11  12
BRANCH  11  38
ATOM     38  CB  SER A   5     -13.589  -8.310   0.448  0.00  0.00    +0.166 C 
BRANCH  38  39
ATOM     39  OG  SER A   5     -14.614  -8.920  -0.310  0.00  0.00    -0.380 OA
ATOM     40  H   SER A   5     -14.831  -8.349  -1.090  0.00  0.00    +0.211 HD
ENDBRANCH  38  39
ENDBRANCH  11  38
ENDBRANCH   9  11
ENDBRANCH   5   7
ENDBRANCH   3   5
BRANCH   1  41
ATOM     41  CA  PHE A   3     -14.178 -14.939   0.621  0.00  0.00    +0.153 C 
BRANCH  41  44
ATOM     42  C   TRP A   2     -15.345 -13.409  -0.891  0.00  0.00    +0.241 C 
ATOM     43  O   TRP A   2     -15.605 -12.620   0.006  0.00  0.00    -0.273 OA
ATOM     44  N   PHE A   3     -14.644 -14.521  -0.696  0.00  0.00    -0.297 N 
ATOM     45  H   PHE A   3     -14.418 -15.118  -1.517  0.00  0.00    +0.150 HD
BRANCH  42  46
ATOM     46  CA  TRP A   2     -15.795 -13.144  -2.326  0.00  0.00    +0.153 C 
BRANCH  46  49
ATOM     47  C   ASP A   1     -18.186 -13.481  -1.933  0.00  0.00    +0.239 C 
ATOM     48  O   ASP A   1     -17.995 -14.576  -1.389  0.00  0.00    -0.274 OA
ATOM     49  N   TRP A   2     -17.195 -12.727  -2.403  0.00  0.00    -0.297 N 
ATOM     50  H   TRP A   2     -17.424 -11.811  -2.839  0.00  0.00    +0.150 HD
BRANCH  47  51
ATOM     51  CA  ASP A   1     -19.605 -12.917  -2.089  0.00  0.00    +0.156 C 
BRANCH  51  52
ATOM     52  N   ASP A   1     -20.610 -13.864  -1.614  0.00  0.00    -0.238 NA
ATOM     53  H   ASP A   1     -20.354 -14.547  -0.873  0.00  0.00    +0.142 HD
ENDBRANCH  51  52
BRANCH  51  54
ATOM     54  CB  ASP A   1     -19.759 -11.631  -1.261  0.00  0.00    +0.140 C 
BRANCH  54  55
ATOM     55  CG  ASP A   1     -19.265 -10.383  -1.981  0.00  0.00    +0.367 C 
ATOM     56  OD2 ASP A   1     -19.882  -9.318  -1.789  0.00  0.00    -0.246 OA
ATOM     57  OD1 ASP A   1     -18.257 -10.448  -2.711  0.00  0.00    -0.246 OA
ENDBRANCH  54  55
ENDBRANCH  51  54
ENDBRANCH  47  51
ENDBRANCH  46  49
BRANCH  46  58
ATOM     58  CB  TRP A   2     -14.895 -12.084  -2.955  0.00  0.00    +0.057 C 
BRANCH  58  59
ATOM     59  CG  TRP A   2     -15.096 -11.931  -4.434  0.00  0.00    -0.002 A 
ATOM     60  CD1 TRP A   2     -16.159 -11.347  -5.065  0.00  0.00    +0.068 A 
ATOM     61  NE1 TRP A   2     -15.981 -11.388  -6.426  0.00  0.00    -0.352 N 
ATOM     62  CE2 TRP A   2     -14.788 -12.007  -6.700  0.00  0.00    +0.056 A 
ATOM     63  CZ2 TRP A   2     -14.175 -12.281  -7.926  0.00  0.00    +0.017 A 
ATOM     64  CH2 TRP A   2     -12.960 -12.924  -7.901  0.00  0.00    +0.001 A 
ATOM     65  CZ3 TRP A   2     -12.352 -13.298  -6.688  0.00  0.00    +0.000 A 
ATOM     66  CE3 TRP A   2     -12.964 -13.025  -5.467  0.00  0.00    +0.001 A 
ATOM     67  HE1 TRP A   2     -16.643 -11.011  -7.134  0.00  0.00    +0.166 HD
ATOM     68  CD2 TRP A   2     -14.205 -12.367  -5.466  0.00  0.00    +0.013 A 
ENDBRANCH  58  59
ENDBRANCH  46  58
ENDBRANCH  42  46
ENDBRANCH  41  44
BRANCH  41  69
ATOM     69  CB  PHE A   3     -13.368 -16.232   0.488  0.00  0.00    +0.055 C 
BRANCH  69  70
ATOM     70  CG  PHE A   3     -14.211 -17.449   0.261  0.00  0.00    -0.020 A 
ATOM     71  CD2 PHE A   3     -14.943 -18.006   1.306  0.00  0.00    -0.004 A 
ATOM     72  CE2 PHE A   3     -15.743 -19.121   1.101  0.00  0.00    -0.000 A 
ATOM     73  CZ  PHE A   3     -15.823 -19.697  -0.164  0.00  0.00    -0.000 A 
ATOM     74  CE1 PHE A   3     -15.097 -19.150  -1.220  0.00  0.00    -0.000 A 
ATOM     75  CD1 PHE A   3     -14.293 -18.028  -1.002  0.00  0.00    -0.004 A 
ENDBRANCH  69  70
ENDBRANCH  41  69
ENDBRANCH   1  41
TORSDOF 28
REMARK  Name = ../refined-set-2016/1y3p/1y3p_pocket.pdb
REMARK  303 active torsions:
REMARK  status: ('A' for Active; 'I' for Inactive)
REMARK    1  A    between atoms: _1  and  _3
REMARK    2  A    between atoms: _3  and  _4
REMARK    3  A    between atoms: _3  and  _6
REMARK    4  A    between atoms: _6  and  _7
REMARK    5  A    between atoms: _12  and  _14
REMARK    6  A    between atoms: _14  and  _15
REMARK    7  A    between atoms: _14  and  _17
REMARK    8  A    between atoms: _17  and  _18
REMARK    9  A    between atoms: _24  and  _26
REMARK   10  A    between atoms: _26  and  _27
REMARK   11  A    between atoms: _26  and  _29
REMARK   12  A    between atoms: _29  and  _30
REMARK   13  A    between atoms: _30  and  _31
REMARK   14  A    between atoms: _31  and  _32
REMARK   15  A    between atoms: _41  and  _43
REMARK   16  A    between atoms: _43  and  _44
REMARK   17  A    between atoms: _43  and  _46
REMARK   18  A    between atoms: _46  and  _47
REMARK   19  A    between atoms: _50  and  _52
REMARK   20  A    between atoms: _52  and  _53
REMARK   21  A    between atoms: _52  and  _55
REMARK   22  A    between atoms: _55  and  _56
REMARK   23  A    between atoms: _56  and  _57
REMARK   24  A    between atoms: _57  and  _58
REMARK   25  A    between atoms: _58  and  _59
REMARK   26  A    between atoms: _63  and  _65
REMARK   27  A    between atoms: _65  and  _66
REMARK   28  A    between atoms: _65  and  _68
REMARK   29  A    between atoms: _68  and  _69
REMARK   30  A    between atoms: _79  and  _81
REMARK   31  A    between atoms: _81  and  _82
REMARK   32  A    between atoms: _81  and  _84
REMARK   33  A    between atoms: _84  and  _85
REMARK   34  A    between atoms: _88  and  _90
REMARK   35  A    between atoms: _90  and  _91
REMARK   36  A    between atoms: _90  and  _93
REMARK   37  A    between atoms: _93  and  _94
REMARK   38  A    between atoms: _99  and  _101
REMARK   39  A    between atoms: _101  and  _102
REMARK   40  A    between atoms: _101  and  _104
REMARK   41  A    between atoms: _104  and  _105
REMARK   42  A    between atoms: _107  and  _109
REMARK   43  A    between atoms: _109  and  _110
REMARK   44  A    between atoms: _109  and  _112
REMARK   45  A    between atoms: _112  and  _113
REMARK   46  A    between atoms: _113  and  _114
REMARK   47  A    between atoms: _119  and  _121
REMARK   48  A    between atoms: _121  and  _122
REMARK   49  A    between atoms: _121  and  _124
REMARK   50  A    between atoms: _124  and  _125
REMARK   51  A    between atoms: _125  and  _126
REMARK   52  A    between atoms: _129  and  _131
REMARK   53  A    between atoms: _131  and  _132
REMARK   54  A    between atoms: _134  and  _136
REMARK   55  A    between atoms: _136  and  _137
REMARK   56  A    between atoms: _136  and  _139
REMARK   57  A    between atoms: _139  and  _140
REMARK   58  A    between atoms: _143  and  _145
REMARK   59  A    between atoms: _145  and  _146
REMARK   60  A    between atoms: _145  and  _148
REMARK   61  A    between atoms: _148  and  _149
REMARK   62  A    between atoms: _154  and  _156
REMARK   63  A    between atoms: _156  and  _157
REMARK   64  A    between atoms: _156  and  _159
REMARK   65  A    between atoms: _159  and  _160
REMARK   66  A    between atoms: _163  and  _165
REMARK   67  A    between atoms: _165  and  _166
REMARK   68  A    between atoms: _165  and  _168
REMARK   69  A    between atoms: _168  and  _169
REMARK   70  A    between atoms: _169  and  _170
REMARK   71  A    between atoms: _170  and  _171
REMARK   72  A    between atoms: _171  and  _172
REMARK   73  A    between atoms: _176  and  _178
REMARK   74  A    between atoms: _178  and  _179
REMARK   75  A    between atoms: _178  and  _181
REMARK   76  A    between atoms: _181  and  _182
REMARK   77  A    between atoms: _187  and  _188
REMARK   78  A    between atoms: _191  and  _192
REMARK   79  A    between atoms: _197  and  _199
REMARK   80  A    between atoms: _199  and  _200
REMARK   81  A    between atoms: _199  and  _202
REMARK   82  A    between atoms: _202  and  _203
REMARK   83  A    between atoms: _206  and  _208
REMARK   84  A    between atoms: _208  and  _209
REMARK   85  A    between atoms: _211  and  _213
REMARK   86  A    between atoms: _213  and  _214
REMARK   87  A    between atoms: _213  and  _216
REMARK   88  A    between atoms: _219  and  _221
REMARK   89  A    between atoms: _221  and  _222
REMARK   90  A    between atoms: _221  and  _224
REMARK   91  A    between atoms: _224  and  _225
REMARK   92  A    between atoms: _227  and  _229
REMARK   93  A    between atoms: _229  and  _230
REMARK   94  A    between atoms: _229  and  _232
REMARK   95  A    between atoms: _232  and  _233
REMARK   96  A    between atoms: _233  and  _234
REMARK   97  A    between atoms: _234  and  _235
REMARK   98  A    between atoms: _244  and  _246
REMARK   99  A    between atoms: _246  and  _247
REMARK  100  A    between atoms: _246  and  _249
REMARK  101  A    between atoms: _249  and  _250
REMARK  102  A    between atoms: _255  and  _257
REMARK  103  A    between atoms: _257  and  _258
REMARK  104  A    between atoms: _257  and  _260
REMARK  105  A    between atoms: _260  and  _261
REMARK  106  A    between atoms: _261  and  _262
REMARK  107  A    between atoms: _262  and  _263
REMARK  108  A    between atoms: _272  and  _274
REMARK  109  A    between atoms: _274  and  _275
REMARK  110  A    between atoms: _274  and  _277
REMARK  111  A    between atoms: _277  and  _278
REMARK  112  A    between atoms: _282  and  _283
REMARK  113  A    between atoms: _288  and  _290
REMARK  114  A    between atoms: _290  and  _291
REMARK  115  A    between atoms: _290  and  _293
REMARK  116  A    between atoms: _293  and  _294
REMARK  117  A    between atoms: _294  and  _295
REMARK  118  A    between atoms: _298  and  _300
REMARK  119  A    between atoms: _300  and  _301
REMARK  120  A    between atoms: _300  and  _303
REMARK  121  A    between atoms: _303  and  _304
REMARK  122  A    between atoms: _304  and  _305
REMARK  123  A    between atoms: _308  and  _310
REMARK  124  A    between atoms: _310  and  _311
REMARK  125  A    between atoms: _310  and  _313
REMARK  126  A    between atoms: _313  and  _314
REMARK  127  A    between atoms: _319  and  _321
REMARK  128  A    between atoms: _321  and  _322
REMARK  129  A    between atoms: _321  and  _324
REMARK  130  A    between atoms: _324  and  _325
REMARK  131  A    between atoms: _328  and  _330
REMARK  132  A    between atoms: _330  and  _331
REMARK  133  A    between atoms: _330  and  _333
REMARK  134  A    between atoms: _333  and  _334
REMARK  135  A    between atoms: _344  and  _346
REMARK  136  A    between atoms: _346  and  _347
REMARK  137  A    between atoms: _346  and  _349
REMARK  138  A    between atoms: _349  and  _350
REMARK  139  A    between atoms: _350  and  _351
REMARK  140  A    between atoms: _353  and  _355
REMARK  141  A    between atoms: _355  and  _356
REMARK  142  A    between atoms: _355  and  _358
REMARK  143  A    between atoms: _358  and  _359
REMARK  144  A    between atoms: _359  and  _360
REMARK  145  A    between atoms: _360  and  _361
REMARK  146  A    between atoms: _361  and  _362
REMARK  147  A    between atoms: _366  and  _368
REMARK  148  A    between atoms: _368  and  _369
REMARK  149  A    between atoms: _372  and  _374
REMARK  150  A    between atoms: _374  and  _375
REMARK  151  A    between atoms: _374  and  _377
REMARK  152  A    between atoms: _377  and  _378
REMARK  153  A    between atoms: _378  and  _379
REMARK  154  A    between atoms: _379  and  _380
REMARK  155  A    between atoms: _389  and  _391
REMARK  156  A    between atoms: _391  and  _392
REMARK  157  A    between atoms: _391  and  _394
REMARK  158  A    between atoms: _394  and  _395
REMARK  159  A    between atoms: _398  and  _400
REMARK  160  A    between atoms: _400  and  _401
REMARK  161  A    between atoms: _400  and  _403
REMARK  162  A    between atoms: _403  and  _404
REMARK  163  A    between atoms: _414  and  _416
REMARK  164  A    between atoms: _416  and  _417
REMARK  165  A    between atoms: _416  and  _419
REMARK  166  A    between atoms: _419  and  _420
REMARK  167  A    between atoms: _426  and  _428
REMARK  168  A    between atoms: _428  and  _429
REMARK  169  A    between atoms: _432  and  _434
REMARK  170  A    between atoms: _434  and  _435
REMARK  171  A    between atoms: _434  and  _437
REMARK  172  A    between atoms: _437  and  _438
REMARK  173  A    between atoms: _440  and  _442
REMARK  174  A    between atoms: _442  and  _443
REMARK  175  A    between atoms: _442  and  _445
REMARK  176  A    between atoms: _445  and  _446
REMARK  177  A    between atoms: _449  and  _451
REMARK  178  A    between atoms: _451  and  _452
REMARK  179  A    between atoms: _455  and  _457
REMARK  180  A    between atoms: _457  and  _458
REMARK  181  A    between atoms: _457  and  _460
REMARK  182  A    between atoms: _460  and  _461
REMARK  183  A    between atoms: _464  and  _466
REMARK  184  A    between atoms: _466  and  _467
REMARK  185  A    between atoms: _466  and  _469
REMARK  186  A    between atoms: _469  and  _470
REMARK  187  A    between atoms: _473  and  _475
REMARK  188  A    between atoms: _475  and  _476
REMARK  189  A    between atoms: _475  and  _478
REMARK  190  A    between atoms: _478  and  _479
REMARK  191  A    between atoms: _479  and  _480
REMARK  192  A    between atoms: _480  and  _481
REMARK  193  A    between atoms: _490  and  _492
REMARK  194  A    between atoms: _492  and  _493
REMARK  195  A    between atoms: _492  and  _495
REMARK  196  A    between atoms: _495  and  _496
REMARK  197  A    between atoms: _496  and  _497
REMARK  198  A    between atoms: _502  and  _504
REMARK  199  A    between atoms: _504  and  _505
REMARK  200  A    between atoms: _504  and  _507
REMARK  201  A    between atoms: _507  and  _508
REMARK  202  A    between atoms: _508  and  _509
REMARK  203  A    between atoms: _509  and  _510
REMARK  204  A    between atoms: _520  and  _521
REMARK  205  A    between atoms: _526  and  _528
REMARK  206  A    between atoms: _528  and  _529
REMARK  207  A    between atoms: _528  and  _531
REMARK  208  A    between atoms: _531  and  _532
REMARK  209  A    between atoms: _535  and  _537
REMARK  210  A    between atoms: _537  and  _538
REMARK  211  A    between atoms: _537  and  _540
REMARK  212  A    between atoms: _540  and  _541
REMARK  213  A    between atoms: _547  and  _548
REMARK  214  A    between atoms: _553  and  _555
REMARK  215  A    between atoms: _555  and  _556
REMARK  216  A    between atoms: _555  and  _558
REMARK  217  A    between atoms: _561  and  _563
REMARK  218  A    between atoms: _563  and  _564
REMARK  219  A    between atoms: _563  and  _566
REMARK  220  A    between atoms: _566  and  _567
REMARK  221  A    between atoms: _572  and  _574
REMARK  222  A    between atoms: _574  and  _575
REMARK  223  A    between atoms: _574  and  _577
REMARK  224  A    between atoms: _577  and  _578
REMARK  225  A    between atoms: _583  and  _585
REMARK  226  A    between atoms: _585  and  _586
REMARK  227  A    between atoms: _585  and  _588
REMARK  228  A    between atoms: _588  and  _589
REMARK  229  A    between atoms: _589  and  _590
REMARK  230  A    between atoms: _592  and  _594
REMARK  231  A    between atoms: _594  and  _595
REMARK  232  A    between atoms: _594  and  _597
REMARK  233  A    between atoms: _597  and  _598
REMARK  234  A    between atoms: _603  and  _604
REMARK  235  A    between atoms: _606  and  _608
REMARK  236  A    between atoms: _608  and  _609
REMARK  237  A    between atoms: _608  and  _611
REMARK  238  A    between atoms: _611  and  _612
REMARK  239  A    between atoms: _612  and  _613
REMARK  240  A    between atoms: _618  and  _620
REMARK  241  A    between atoms: _620  and  _621
REMARK  242  A    between atoms: _620  and  _623
REMARK  243  A    between atoms: _623  and  _624
REMARK  244  A    between atoms: _628  and  _629
REMARK  245  A    between atoms: _634  and  _636
REMARK  246  A    between atoms: _636  and  _637
REMARK  247  A    between atoms: _636  and  _639
REMARK  248  A    between atoms: _639  and  _640
REMARK  249  A    between atoms: _646  and  _648
REMARK  250  A    between atoms: _648  and  _649
REMARK  251  A    between atoms: _648  and  _651
REMARK  252  A    between atoms: _651  and  _652
REMARK  253  A    between atoms: _652  and  _653
REMARK  254  A    between atoms: _658  and  _660
REMARK  255  A    between atoms: _660  and  _661
REMARK  256  A    between atoms: _660  and  _663
REMARK  257  A    between atoms: _663  and  _664
REMARK  258  A    between atoms: _667  and  _669
REMARK  259  A    between atoms: _669  and  _670
REMARK  260  A    between atoms: _669  and  _672
REMARK  261  A    between atoms: _672  and  _673
REMARK  262  A    between atoms: _678  and  _679
REMARK  263  A    between atoms: _681  and  _683
REMARK  264  A    between atoms: _683  and  _684
REMARK  265  A    between atoms: _683  and  _686
REMARK  266  A    between atoms: _686  and  _687
REMARK  267  A    between atoms: _692  and  _693
REMARK  268  A    between atoms: _695  and  _697
REMARK  269  A    between atoms: _697  and  _698
REMARK  270  A    between atoms: _697  and  _700
REMARK  271  A    between atoms: _700  and  _701
REMARK  272  A    between atoms: _701  and  _702
REMARK  273  A    between atoms: _705  and  _707
REMARK  274  A    between atoms: _707  and  _708
REMARK  275  A    between atoms: _707  and  _710
REMARK  276  A    between atoms: _710  and  _711
REMARK  277  A    between atoms: _711  and  _712
REMARK  278  A    between atoms: _712  and  _713
REMARK  279  A    between atoms: _722  and  _724
REMARK  280  A    between atoms: _724  and  _725
REMARK  281  A    between atoms: _724  and  _727
REMARK  282  A    between atoms: _727  and  _728
REMARK  283  A    between atoms: _738  and  _740
REMARK  284  A    between atoms: _740  and  _741
REMARK  285  A    between atoms: _740  and  _743
REMARK  286  A    between atoms: _743  and  _744
REMARK  287  A    between atoms: _747  and  _749
REMARK  288  A    between atoms: _749  and  _750
REMARK  289  A    between atoms: _753  and  _755
REMARK  290  A    between atoms: _755  and  _756
REMARK  291  A    between atoms: _755  and  _758
REMARK  292  A    between atoms: _758  and  _759
REMARK  293  A    between atoms: _762  and  _764
REMARK  294  A    between atoms: _764  and  _765
REMARK  295  A    between atoms: _764  and  _767
REMARK  296  A    between atoms: _767  and  _768
REMARK  297  A    between atoms: _768  and  _769
REMARK  298  A    between atoms: _769  and  _770
REMARK  299  A    between atoms: _770  and  _771
REMARK  300  A    between atoms: _775  and  _777
REMARK  301  A    between atoms: _777  and  _778
REMARK  302  A    between atoms: _777  and  _780
REMARK  303  A    between atoms: _780  and  _781
REMARK                            x       y       z     vdW  Elec       q    Type
REMARK                         _______ _______ _______ _____ _____    ______ ____
ROOT
ATOM      1  CA  ASP A   1     -18.801 -18.993  -9.490  0.00  0.00    +0.144 C 
ENDROOT
BRANCH   1   2
ATOM      2  N   ASP A   1     -19.875 -19.937  -9.184  0.00  0.00    -0.239 NA
ATOM      3  H   ASP A   1     -20.249 -19.990  -8.215  0.00  0.00    +0.142 HD
ENDBRANCH   1   2
BRANCH   1   4
ATOM      4  C   ASP A   1     -17.381 -19.474  -9.226  0.00  0.00    +0.225 C 
ATOM      5  O   ASP A   1     -17.139 -20.269  -8.324  0.00  0.00    -0.287 OA
ENDBRANCH   1   4
BRANCH   1   6
ATOM      6  CB  ASP A   1     -19.027 -17.698  -8.708  0.00  0.00    +0.139 C 
BRANCH   6   7
ATOM      7  CG  ASP A   1     -18.237 -16.538  -9.265  0.00  0.00    +0.367 C 
ATOM      8  OD2 ASP A   1     -17.858 -15.653  -8.471  0.00  0.00    -0.246 OA
ATOM      9  OD1 ASP A   1     -18.011 -16.505 -10.496  0.00  0.00    -0.246 OA
ENDBRANCH   6   7
ENDBRANCH   1   6
TORSDOF 4
REMARK  Name = ../refined-set-2016/1y3p/1y3p_pocket.pdb
REMARK  303 active torsions:
REMARK  status: ('A' for Active; 'I' for Inactive)
REMARK    1  A    between atoms: _1  and  _3
REMARK    2  A    between atoms: _3  and  _4
REMARK    3  A    between atoms: _3  and  _6
REMARK    4  A    between atoms: _6  and  _7
REMARK    5  A    between atoms: _12  and  _14
REMARK    6  A    between atoms: _14  and  _15
REMARK    7  A    between atoms: _14  and  _17
REMARK    8  A    between atoms: _17  and  _18
REMARK    9  A    between atoms: _24  and  _26
REMARK   10  A    between atoms: _26  and  _27
REMARK   11  A    between atoms: _26  and  _29
REMARK   12  A    between atoms: _29  and  _30
REMARK   13  A    between atoms: _30  and  _31
REMARK   14  A    between atoms: _31  and  _32
REMARK   15  A    between atoms: _41  and  _43
REMARK   16  A    between atoms: _43  and  _44
REMARK   17  A    between atoms: _43  and  _46
REMARK   18  A    between atoms: _46  and  _47
REMARK   19  A    between atoms: _50  and  _52
REMARK   20  A    between atoms: _52  and  _53
REMARK   21  A    between atoms: _52  and  _55
REMARK   22  A    between atoms: _55  and  _56
REMARK   23  A    between atoms: _56  and  _57
REMARK   24  A    between atoms: _57  and  _58
REMARK   25  A    between atoms: _58  and  _59
REMARK   26  A    between atoms: _63  and  _65
REMARK   27  A    between atoms: _65  and  _66
REMARK   28  A    between atoms: _65  and  _68
REMARK   29  A    between atoms: _68  and  _69
REMARK   30  A    between atoms: _79  and  _81
REMARK   31  A    between atoms: _81  and  _82
REMARK   32  A    between atoms: _81  and  _84
REMARK   33  A    between atoms: _84  and  _85
REMARK   34  A    between atoms: _88  and  _90
REMARK   35  A    between atoms: _90  and  _91
REMARK   36  A    between atoms: _90  and  _93
REMARK   37  A    between atoms: _93  and  _94
REMARK   38  A    between atoms: _99  and  _101
REMARK   39  A    between atoms: _101  and  _102
REMARK   40  A    between atoms: _101  and  _104
REMARK   41  A    between atoms: _104  and  _105
REMARK   42  A    between atoms: _107  and  _109
REMARK   43  A    between atoms: _109  and  _110
REMARK   44  A    between atoms: _109  and  _112
REMARK   45  A    between atoms: _112  and  _113
REMARK   46  A    between atoms: _113  and  _114
REMARK   47  A    between atoms: _119  and  _121
REMARK   48  A    between atoms: _121  and  _122
REMARK   49  A    between atoms: _121  and  _124
REMARK   50  A    between atoms: _124  and  _125
REMARK   51  A    between atoms: _125  and  _126
REMARK   52  A    between atoms: _129  and  _131
REMARK   53  A    between atoms: _131  and  _132
REMARK   54  A    between atoms: _134  and  _136
REMARK   55  A    between atoms: _136  and  _137
REMARK   56  A    between atoms: _136  and  _139
REMARK   57  A    between atoms: _139  and  _140
REMARK   58  A    between atoms: _143  and  _145
REMARK   59  A    between atoms: _145  and  _146
REMARK   60  A    between atoms: _145  and  _148
REMARK   61  A    between atoms: _148  and  _149
REMARK   62  A    between atoms: _154  and  _156
REMARK   63  A    between atoms: _156  and  _157
REMARK   64  A    between atoms: _156  and  _159
REMARK   65  A    between atoms: _159  and  _160
REMARK   66  A    between atoms: _163  and  _165
REMARK   67  A    between atoms: _165  and  _166
REMARK   68  A    between atoms: _165  and  _168
REMARK   69  A    between atoms: _168  and  _169
REMARK   70  A    between atoms: _169  and  _170
REMARK   71  A    between atoms: _170  and  _171
REMARK   72  A    between atoms: _171  and  _172
REMARK   73  A    between atoms: _176  and  _178
REMARK   74  A    between atoms: _178  and  _179
REMARK   75  A    between atoms: _178  and  _181
REMARK   76  A    between atoms: _181  and  _182
REMARK   77  A    between atoms: _187  and  _188
REMARK   78  A    between atoms: _191  and  _192
REMARK   79  A    between atoms: _197  and  _199
REMARK   80  A    between atoms: _199  and  _200
REMARK   81  A    between atoms: _199  and  _202
REMARK   82  A    between atoms: _202  and  _203
REMARK   83  A    between atoms: _206  and  _208
REMARK   84  A    between atoms: _208  and  _209
REMARK   85  A    between atoms: _211  and  _213
REMARK   86  A    between atoms: _213  and  _214
REMARK   87  A    between atoms: _213  and  _216
REMARK   88  A    between atoms: _219  and  _221
REMARK   89  A    between atoms: _221  and  _222
REMARK   90  A    between atoms: _221  and  _224
REMARK   91  A    between atoms: _224  and  _225
REMARK   92  A    between atoms: _227  and  _229
REMARK   93  A    between atoms: _229  and  _230
REMARK   94  A    between atoms: _229  and  _232
REMARK   95  A    between atoms: _232  and  _233
REMARK   96  A    between atoms: _233  and  _234
REMARK   97  A    between atoms: _234  and  _235
REMARK   98  A    between atoms: _244  and  _246
REMARK   99  A    between atoms: _246  and  _247
REMARK  100  A    between atoms: _246  and  _249
REMARK  101  A    between atoms: _249  and  _250
REMARK  102  A    between atoms: _255  and  _257
REMARK  103  A    between atoms: _257  and  _258
REMARK  104  A    between atoms: _257  and  _260
REMARK  105  A    between atoms: _260  and  _261
REMARK  106  A    between atoms: _261  and  _262
REMARK  107  A    between atoms: _262  and  _263
REMARK  108  A    between atoms: _272  and  _274
REMARK  109  A    between atoms: _274  and  _275
REMARK  110  A    between atoms: _274  and  _277
REMARK  111  A    between atoms: _277  and  _278
REMARK  112  A    between atoms: _282  and  _283
REMARK  113  A    between atoms: _288  and  _290
REMARK  114  A    between atoms: _290  and  _291
REMARK  115  A    between atoms: _290  and  _293
REMARK  116  A    between atoms: _293  and  _294
REMARK  117  A    between atoms: _294  and  _295
REMARK  118  A    between atoms: _298  and  _300
REMARK  119  A    between atoms: _300  and  _301
REMARK  120  A    between atoms: _300  and  _303
REMARK  121  A    between atoms: _303  and  _304
REMARK  122  A    between atoms: _304  and  _305
REMARK  123  A    between atoms: _308  and  _310
REMARK  124  A    between atoms: _310  and  _311
REMARK  125  A    between atoms: _310  and  _313
REMARK  126  A    between atoms: _313  and  _314
REMARK  127  A    between atoms: _319  and  _321
REMARK  128  A    between atoms: _321  and  _322
REMARK  129  A    between atoms: _321  and  _324
REMARK  130  A    between atoms: _324  and  _325
REMARK  131  A    between atoms: _328  and  _330
REMARK  132  A    between atoms: _330  and  _331
REMARK  133  A    between atoms: _330  and  _333
REMARK  134  A    between atoms: _333  and  _334
REMARK  135  A    between atoms: _344  and  _346
REMARK  136  A    between atoms: _346  and  _347
REMARK  137  A    between atoms: _346  and  _349
REMARK  138  A    between atoms: _349  and  _350
REMARK  139  A    between atoms: _350  and  _351
REMARK  140  A    between atoms: _353  and  _355
REMARK  141  A    between atoms: _355  and  _356
REMARK  142  A    between atoms: _355  and  _358
REMARK  143  A    between atoms: _358  and  _359
REMARK  144  A    between atoms: _359  and  _360
REMARK  145  A    between atoms: _360  and  _361
REMARK  146  A    between atoms: _361  and  _362
REMARK  147  A    between atoms: _366  and  _368
REMARK  148  A    between atoms: _368  and  _369
REMARK  149  A    between atoms: _372  and  _374
REMARK  150  A    between atoms: _374  and  _375
REMARK  151  A    between atoms: _374  and  _377
REMARK  152  A    between atoms: _377  and  _378
REMARK  153  A    between atoms: _378  and  _379
REMARK  154  A    between atoms: _379  and  _380
REMARK  155  A    between atoms: _389  and  _391
REMARK  156  A    between atoms: _391  and  _392
REMARK  157  A    between atoms: _391  and  _394
REMARK  158  A    between atoms: _394  and  _395
REMARK  159  A    between atoms: _398  and  _400
REMARK  160  A    between atoms: _400  and  _401
REMARK  161  A    between atoms: _400  and  _403
REMARK  162  A    between atoms: _403  and  _404
REMARK  163  A    between atoms: _414  and  _416
REMARK  164  A    between atoms: _416  and  _417
REMARK  165  A    between atoms: _416  and  _419
REMARK  166  A    between atoms: _419  and  _420
REMARK  167  A    between atoms: _426  and  _428
REMARK  168  A    between atoms: _428  and  _429
REMARK  169  A    between atoms: _432  and  _434
REMARK  170  A    between atoms: _434  and  _435
REMARK  171  A    between atoms: _434  and  _437
REMARK  172  A    between atoms: _437  and  _438
REMARK  173  A    between atoms: _440  and  _442
REMARK  174  A    between atoms: _442  and  _443
REMARK  175  A    between atoms: _442  and  _445
REMARK  176  A    between atoms: _445  and  _446
REMARK  177  A    between atoms: _449  and  _451
REMARK  178  A    between atoms: _451  and  _452
REMARK  179  A    between atoms: _455  and  _457
REMARK  180  A    between atoms: _457  and  _458
REMARK  181  A    between atoms: _457  and  _460
REMARK  182  A    between atoms: _460  and  _461
REMARK  183  A    between atoms: _464  and  _466
REMARK  184  A    between atoms: _466  and  _467
REMARK  185  A    between atoms: _466  and  _469
REMARK  186  A    between atoms: _469  and  _470
REMARK  187  A    between atoms: _473  and  _475
REMARK  188  A    between atoms: _475  and  _476
REMARK  189  A    between atoms: _475  and  _478
REMARK  190  A    between atoms: _478  and  _479
REMARK  191  A    between atoms: _479  and  _480
REMARK  192  A    between atoms: _480  and  _481
REMARK  193  A    between atoms: _490  and  _492
REMARK  194  A    between atoms: _492  and  _493
REMARK  195  A    between atoms: _492  and  _495
REMARK  196  A    between atoms: _495  and  _496
REMARK  197  A    between atoms: _496  and  _497
REMARK  198  A    between atoms: _502  and  _504
REMARK  199  A    between atoms: _504  and  _505
REMARK  200  A    between atoms: _504  and  _507
REMARK  201  A    between atoms: _507  and  _508
REMARK  202  A    between atoms: _508  and  _509
REMARK  203  A    between atoms: _509  and  _510
REMARK  204  A    between atoms: _520  and  _521
REMARK  205  A    between atoms: _526  and  _528
REMARK  206  A    between atoms: _528  and  _529
REMARK  207  A    between atoms: _528  and  _531
REMARK  208  A    between atoms: _531  and  _532
REMARK  209  A    between atoms: _535  and  _537
REMARK  210  A    between atoms: _537  and  _538
REMARK  211  A    between atoms: _537  and  _540
REMARK  212  A    between atoms: _540  and  _541
REMARK  213  A    between atoms: _547  and  _548
REMARK  214  A    between atoms: _553  and  _555
REMARK  215  A    between atoms: _555  and  _556
REMARK  216  A    between atoms: _555  and  _558
REMARK  217  A    between atoms: _561  and  _563
REMARK  218  A    between atoms: _563  and  _564
REMARK  219  A    between atoms: _563  and  _566
REMARK  220  A    between atoms: _566  and  _567
REMARK  221  A    between atoms: _572  and  _574
REMARK  222  A    between atoms: _574  and  _575
REMARK  223  A    between atoms: _574  and  _577
REMARK  224  A    between atoms: _577  and  _578
REMARK  225  A    between atoms: _583  and  _585
REMARK  226  A    between atoms: _585  and  _586
REMARK  227  A    between atoms: _585  and  _588
REMARK  228  A    between atoms: _588  and  _589
REMARK  229  A    between atoms: _589  and  _590
REMARK  230  A    between atoms: _592  and  _594
REMARK  231  A    between atoms: _594  and  _595
REMARK  232  A    between atoms: _594  and  _597
REMARK  233  A    between atoms: _597  and  _598
REMARK  234  A    between atoms: _603  and  _604
REMARK  235  A    between atoms: _606  and  _608
REMARK  236  A    between atoms: _608  and  _609
REMARK  237  A    between atoms: _608  and  _611
REMARK  238  A    between atoms: _611  and  _612
REMARK  239  A    between atoms: _612  and  _613
REMARK  240  A    between atoms: _618  and  _620
REMARK  241  A    between atoms: _620  and  _621
REMARK  242  A    between atoms: _620  and  _623
REMARK  243  A    between atoms: _623  and  _624
REMARK  244  A    between atoms: _628  and  _629
REMARK  245  A    between atoms: _634  and  _636
REMARK  246  A    between atoms: _636  and  _637
REMARK  247  A    between atoms: _636  and  _639
REMARK  248  A    between atoms: _639  and  _640
REMARK  249  A    between atoms: _646  and  _648
REMARK  250  A    between atoms: _648  and  _649
REMARK  251  A    between atoms: _648  and  _651
REMARK  252  A    between atoms: _651  and  _652
REMARK  253  A    between atoms: _652  and  _653
REMARK  254  A    between atoms: _658  and  _660
REMARK  255  A    between atoms: _660  and  _661
REMARK  256  A    between atoms: _660  and  _663
REMARK  257  A    between atoms: _663  and  _664
REMARK  258  A    between atoms: _667  and  _669
REMARK  259  A    between atoms: _669  and  _670
REMARK  260  A    between atoms: _669  and  _672
REMARK  261  A    between atoms: _672  and  _673
REMARK  262  A    between atoms: _678  and  _679
REMARK  263  A    between atoms: _681  and  _683
REMARK  264  A    between atoms: _683  and  _684
REMARK  265  A    between atoms: _683  and  _686
REMARK  266  A    between atoms: _686  and  _687
REMARK  267  A    between atoms: _692  and  _693
REMARK  268  A    between atoms: _695  and  _697
REMARK  269  A    between atoms: _697  and  _698
REMARK  270  A    between atoms: _697  and  _700
REMARK  271  A    between atoms: _700  and  _701
REMARK  272  A    between atoms: _701  and  _702
REMARK  273  A    between atoms: _705  and  _707
REMARK  274  A    between atoms: _707  and  _708
REMARK  275  A    between atoms: _707  and  _710
REMARK  276  A    between atoms: _710  and  _711
REMARK  277  A    between atoms: _711  and  _712
REMARK  278  A    between atoms: _712  and  _713
REMARK  279  A    between atoms: _722  and  _724
REMARK  280  A    between atoms: _724  and  _725
REMARK  281  A    between atoms: _724  and  _727
REMARK  282  A    between atoms: _727  and  _728
REMARK  283  A    between atoms: _738  and  _740
REMARK  284  A    between atoms: _740  and  _741
REMARK  285  A    between atoms: _740  and  _743
REMARK  286  A    between atoms: _743  and  _744
REMARK  287  A    between atoms: _747  and  _749
REMARK  288  A    between atoms: _749  and  _750
REMARK  289  A    between atoms: _753  and  _755
REMARK  290  A    between atoms: _755  and  _756
REMARK  291  A    between atoms: _755  and  _758
REMARK  292  A    between atoms: _758  and  _759
REMARK  293  A    between atoms: _762  and  _764
REMARK  294  A    between atoms: _764  and  _765
REMARK  295  A    between atoms: _764  and  _767
REMARK  296  A    between atoms: _767  and  _768
REMARK  297  A    between atoms: _768  and  _769
REMARK  298  A    between atoms: _769  and  _770
REMARK  299  A    between atoms: _770  and  _771
REMARK  300  A    between atoms: _775  and  _777
REMARK  301  A    between atoms: _777  and  _778
REMARK  302  A    between atoms: _777  and  _780
REMARK  303  A    between atoms: _780  and  _781
REMARK                            x       y       z     vdW  Elec       q    Type
REMARK                         _______ _______ _______ _____ _____    ______ ____
ROOT
ATOM      1  CA  ARG A   1     -12.101 -17.011 -10.597  0.00  0.00    +0.145 C 
ENDROOT
BRANCH   1   2
ATOM      2  C   ARG A   1     -11.931 -17.286 -12.099  0.00  0.00    +0.238 C 
ATOM      3  O   ARG A   1     -11.726 -18.426 -12.502  0.00  0.00    -0.274 OA
ATOM      4  N   GLN A   2     -12.034 -16.248 -12.927  0.00  0.00    -0.298 N 
ATOM      5  H   GLN A   2     -12.208 -15.298 -12.541  0.00  0.00    +0.150 HD
BRANCH   4   6
ATOM      6  CA  GLN A   2     -11.905 -16.427 -14.374  0.00  0.00    +0.137 C 
BRANCH   6   7
ATOM      7  C   GLN A   2     -10.590 -15.892 -14.925  0.00  0.00    +0.227 C 
ATOM      8  O   GLN A   2     -10.301 -14.695 -14.839  0.00  0.00    -0.286 OA
ENDBRANCH   6   7
BRANCH   6   9
ATOM      9  CB  GLN A   2     -13.085 -15.764 -15.091  0.00  0.00    +0.037 C 
BRANCH   9  10
ATOM     10  CG  GLN A   2     -13.066 -15.891 -16.612  0.00  0.00    +0.087 C 
BRANCH  10  11
ATOM     11  CD  GLN A   2     -14.412 -15.563 -17.220  0.00  0.00    +0.219 C 
ATOM     12  OE1 GLN A   2     -15.018 -14.537 -16.899  0.00  0.00    -0.275 OA
ATOM     13  NE2 GLN A   2     -14.890 -16.430 -18.104  0.00  0.00    -0.329 N 
ATOM     14 HE21 GLN A   2     -14.344 -17.282 -18.344  0.00  0.00    +0.145 HD
ATOM     15 HE22 GLN A   2     -15.810 -16.257 -18.556  0.00  0.00    +0.145 HD
ENDBRANCH  10  11
ENDBRANCH   9  10
ENDBRANCH   6   9
ENDBRANCH   4   6
ENDBRANCH   1   2
BRANCH   1  16
ATOM     16  N   ARG A   1     -12.971 -18.049 -10.065  0.00  0.00    -0.238 NA
ATOM     17  H   ARG A   1     -12.613 -18.695  -9.333  0.00  0.00    +0.142 HD
ENDBRANCH   1  16
BRANCH   1  18
ATOM     18  CB  ARG A   1     -10.757 -17.051  -9.863  0.00  0.00    +0.030 C 
BRANCH  18  19
ATOM     19  CG  ARG A   1     -10.121 -15.689  -9.643  0.00  0.00    +0.045 C 
BRANCH  19  20
ATOM     20  CD  ARG A   1      -8.969 -15.760  -8.647  0.00  0.00    +0.174 C 
BRANCH  20  21
ATOM     21  NE  ARG A   1      -9.414 -15.859  -7.254  0.00  0.00    -0.265 N 
ATOM     22  CZ  ARG A   1      -9.152 -14.942  -6.325  0.00  0.00    +0.342 C 
ATOM     23  NH2 ARG A   1      -9.567 -15.109  -5.077  0.00  0.00    -0.292 N 
ATOM     24 HH21 ARG A   1      -9.357 -14.387  -4.358  0.00  0.00    +0.255 HD
ATOM     25 HH22 ARG A   1     -10.102 -15.962  -4.817  0.00  0.00    +0.255 HD
ATOM     26  NH1 ARG A   1      -8.453 -13.857  -6.643  0.00  0.00    -0.292 N 
ATOM     27 HH11 ARG A   1      -8.248 -13.140  -5.918  0.00  0.00    +0.255 HD
ATOM     28 HH12 ARG A   1      -8.112 -13.725  -7.616  0.00  0.00    +0.255 HD
ATOM     29  HE  ARG A   1      -9.967 -16.695  -6.975  0.00  0.00    +0.259 HD
ENDBRANCH  20  21
ENDBRANCH  19  20
ENDBRANCH  18  19
ENDBRANCH   1  18
TORSDOF 11
REMARK  Name = ../refined-set-2016/1y3p/1y3p_pocket.pdb
REMARK  303 active torsions:
REMARK  status: ('A' for Active; 'I' for Inactive)
REMARK    1  A    between atoms: _1  and  _3
REMARK    2  A    between atoms: _3  and  _4
REMARK    3  A    between atoms: _3  and  _6
REMARK    4  A    between atoms: _6  and  _7
REMARK    5  A    between atoms: _12  and  _14
REMARK    6  A    between atoms: _14  and  _15
REMARK    7  A    between atoms: _14  and  _17
REMARK    8  A    between atoms: _17  and  _18
REMARK    9  A    between atoms: _24  and  _26
REMARK   10  A    between atoms: _26  and  _27
REMARK   11  A    between atoms: _26  and  _29
REMARK   12  A    between atoms: _29  and  _30
REMARK   13  A    between atoms: _30  and  _31
REMARK   14  A    between atoms: _31  and  _32
REMARK   15  A    between atoms: _41  and  _43
REMARK   16  A    between atoms: _43  and  _44
REMARK   17  A    between atoms: _43  and  _46
REMARK   18  A    between atoms: _46  and  _47
REMARK   19  A    between atoms: _50  and  _52
REMARK   20  A    between atoms: _52  and  _53
REMARK   21  A    between atoms: _52  and  _55
REMARK   22  A    between atoms: _55  and  _56
REMARK   23  A    between atoms: _56  and  _57
REMARK   24  A    between atoms: _57  and  _58
REMARK   25  A    between atoms: _58  and  _59
REMARK   26  A    between atoms: _63  and  _65
REMARK   27  A    between atoms: _65  and  _66
REMARK   28  A    between atoms: _65  and  _68
REMARK   29  A    between atoms: _68  and  _69
REMARK   30  A    between atoms: _79  and  _81
REMARK   31  A    between atoms: _81  and  _82
REMARK   32  A    between atoms: _81  and  _84
REMARK   33  A    between atoms: _84  and  _85
REMARK   34  A    between atoms: _88  and  _90
REMARK   35  A    between atoms: _90  and  _91
REMARK   36  A    between atoms: _90  and  _93
REMARK   37  A    between atoms: _93  and  _94
REMARK   38  A    between atoms: _99  and  _101
REMARK   39  A    between atoms: _101  and  _102
REMARK   40  A    between atoms: _101  and  _104
REMARK   41  A    between atoms: _104  and  _105
REMARK   42  A    between atoms: _107  and  _109
REMARK   43  A    between atoms: _109  and  _110
REMARK   44  A    between atoms: _109  and  _112
REMARK   45  A    between atoms: _112  and  _113
REMARK   46  A    between atoms: _113  and  _114
REMARK   47  A    between atoms: _119  and  _121
REMARK   48  A    between atoms: _121  and  _122
REMARK   49  A    between atoms: _121  and  _124
REMARK   50  A    between atoms: _124  and  _125
REMARK   51  A    between atoms: _125  and  _126
REMARK   52  A    between atoms: _129  and  _131
REMARK   53  A    between atoms: _131  and  _132
REMARK   54  A    between atoms: _134  and  _136
REMARK   55  A    between atoms: _136  and  _137
REMARK   56  A    between atoms: _136  and  _139
REMARK   57  A    between atoms: _139  and  _140
REMARK   58  A    between atoms: _143  and  _145
REMARK   59  A    between atoms: _145  and  _146
REMARK   60  A    between atoms: _145  and  _148
REMARK   61  A    between atoms: _148  and  _149
REMARK   62  A    between atoms: _154  and  _156
REMARK   63  A    between atoms: _156  and  _157
REMARK   64  A    between atoms: _156  and  _159
REMARK   65  A    between atoms: _159  and  _160
REMARK   66  A    between atoms: _163  and  _165
REMARK   67  A    between atoms: _165  and  _166
REMARK   68  A    between atoms: _165  and  _168
REMARK   69  A    between atoms: _168  and  _169
REMARK   70  A    between atoms: _169  and  _170
REMARK   71  A    between atoms: _170  and  _171
REMARK   72  A    between atoms: _171  and  _172
REMARK   73  A    between atoms: _176  and  _178
REMARK   74  A    between atoms: _178  and  _179
REMARK   75  A    between atoms: _178  and  _181
REMARK   76  A    between atoms: _181  and  _182
REMARK   77  A    between atoms: _187  and  _188
REMARK   78  A    between atoms: _191  and  _192
REMARK   79  A    between atoms: _197  and  _199
REMARK   80  A    between atoms: _199  and  _200
REMARK   81  A    between atoms: _199  and  _202
REMARK   82  A    between atoms: _202  and  _203
REMARK   83  A    between atoms: _206  and  _208
REMARK   84  A    between atoms: _208  and  _209
REMARK   85  A    between atoms: _211  and  _213
REMARK   86  A    between atoms: _213  and  _214
REMARK   87  A    between atoms: _213  and  _216
REMARK   88  A    between atoms: _219  and  _221
REMARK   89  A    between atoms: _221  and  _222
REMARK   90  A    between atoms: _221  and  _224
REMARK   91  A    between atoms: _224  and  _225
REMARK   92  A    between atoms: _227  and  _229
REMARK   93  A    between atoms: _229  and  _230
REMARK   94  A    between atoms: _229  and  _232
REMARK   95  A    between atoms: _232  and  _233
REMARK   96  A    between atoms: _233  and  _234
REMARK   97  A    between atoms: _234  and  _235
REMARK   98  A    between atoms: _244  and  _246
REMARK   99  A    between atoms: _246  and  _247
REMARK  100  A    between atoms: _246  and  _249
REMARK  101  A    between atoms: _249  and  _250
REMARK  102  A    between atoms: _255  and  _257
REMARK  103  A    between atoms: _257  and  _258
REMARK  104  A    between atoms: _257  and  _260
REMARK  105  A    between atoms: _260  and  _261
REMARK  106  A    between atoms: _261  and  _262
REMARK  107  A    between atoms: _262  and  _263
REMARK  108  A    between atoms: _272  and  _274
REMARK  109  A    between atoms: _274  and  _275
REMARK  110  A    between atoms: _274  and  _277
REMARK  111  A    between atoms: _277  and  _278
REMARK  112  A    between atoms: _282  and  _283
REMARK  113  A    between atoms: _288  and  _290
REMARK  114  A    between atoms: _290  and  _291
REMARK  115  A    between atoms: _290  and  _293
REMARK  116  A    between atoms: _293  and  _294
REMARK  117  A    between atoms: _294  and  _295
REMARK  118  A    between atoms: _298  and  _300
REMARK  119  A    between atoms: _300  and  _301
REMARK  120  A    between atoms: _300  and  _303
REMARK  121  A    between atoms: _303  and  _304
REMARK  122  A    between atoms: _304  and  _305
REMARK  123  A    between atoms: _308  and  _310
REMARK  124  A    between atoms: _310  and  _311
REMARK  125  A    between atoms: _310  and  _313
REMARK  126  A    between atoms: _313  and  _314
REMARK  127  A    between atoms: _319  and  _321
REMARK  128  A    between atoms: _321  and  _322
REMARK  129  A    between atoms: _321  and  _324
REMARK  130  A    between atoms: _324  and  _325
REMARK  131  A    between atoms: _328  and  _330
REMARK  132  A    between atoms: _330  and  _331
REMARK  133  A    between atoms: _330  and  _333
REMARK  134  A    between atoms: _333  and  _334
REMARK  135  A    between atoms: _344  and  _346
REMARK  136  A    between atoms: _346  and  _347
REMARK  137  A    between atoms: _346  and  _349
REMARK  138  A    between atoms: _349  and  _350
REMARK  139  A    between atoms: _350  and  _351
REMARK  140  A    between atoms: _353  and  _355
REMARK  141  A    between atoms: _355  and  _356
REMARK  142  A    between atoms: _355  and  _358
REMARK  143  A    between atoms: _358  and  _359
REMARK  144  A    between atoms: _359  and  _360
REMARK  145  A    between atoms: _360  and  _361
REMARK  146  A    between atoms: _361  and  _362
REMARK  147  A    between atoms: _366  and  _368
REMARK  148  A    between atoms: _368  and  _369
REMARK  149  A    between atoms: _372  and  _374
REMARK  150  A    between atoms: _374  and  _375
REMARK  151  A    between atoms: _374  and  _377
REMARK  152  A    between atoms: _377  and  _378
REMARK  153  A    between atoms: _378  and  _379
REMARK  154  A    between atoms: _379  and  _380
REMARK  155  A    between atoms: _389  and  _391
REMARK  156  A    between atoms: _391  and  _392
REMARK  157  A    between atoms: _391  and  _394
REMARK  158  A    between atoms: _394  and  _395
REMARK  159  A    between atoms: _398  and  _400
REMARK  160  A    between atoms: _400  and  _401
REMARK  161  A    between atoms: _400  and  _403
REMARK  162  A    between atoms: _403  and  _404
REMARK  163  A    between atoms: _414  and  _416
REMARK  164  A    between atoms: _416  and  _417
REMARK  165  A    between atoms: _416  and  _419
REMARK  166  A    between atoms: _419  and  _420
REMARK  167  A    between atoms: _426  and  _428
REMARK  168  A    between atoms: _428  and  _429
REMARK  169  A    between atoms: _432  and  _434
REMARK  170  A    between atoms: _434  and  _435
REMARK  171  A    between atoms: _434  and  _437
REMARK  172  A    between atoms: _437  and  _438
REMARK  173  A    between atoms: _440  and  _442
REMARK  174  A    between atoms: _442  and  _443
REMARK  175  A    between atoms: _442  and  _445
REMARK  176  A    between atoms: _445  and  _446
REMARK  177  A    between atoms: _449  and  _451
REMARK  178  A    between atoms: _451  and  _452
REMARK  179  A    between atoms: _455  and  _457
REMARK  180  A    between atoms: _457  and  _458
REMARK  181  A    between atoms: _457  and  _460
REMARK  182  A    between atoms: _460  and  _461
REMARK  183  A    between atoms: _464  and  _466
REMARK  184  A    between atoms: _466  and  _467
REMARK  185  A    between atoms: _466  and  _469
REMARK  186  A    between atoms: _469  and  _470
REMARK  187  A    between atoms: _473  and  _475
REMARK  188  A    between atoms: _475  and  _476
REMARK  189  A    between atoms: _475  and  _478
REMARK  190  A    between atoms: _478  and  _479
REMARK  191  A    between atoms: _479  and  _480
REMARK  192  A    between atoms: _480  and  _481
REMARK  193  A    between atoms: _490  and  _492
REMARK  194  A    between atoms: _492  and  _493
REMARK  195  A    between atoms: _492  and  _495
REMARK  196  A    between atoms: _495  and  _496
REMARK  197  A    between atoms: _496  and  _497
REMARK  198  A    between atoms: _502  and  _504
REMARK  199  A    between atoms: _504  and  _505
REMARK  200  A    between atoms: _504  and  _507
REMARK  201  A    between atoms: _507  and  _508
REMARK  202  A    between atoms: _508  and  _509
REMARK  203  A    between atoms: _509  and  _510
REMARK  204  A    between atoms: _520  and  _521
REMARK  205  A    between atoms: _526  and  _528
REMARK  206  A    between atoms: _528  and  _529
REMARK  207  A    between atoms: _528  and  _531
REMARK  208  A    between atoms: _531  and  _532
REMARK  209  A    between atoms: _535  and  _537
REMARK  210  A    between atoms: _537  and  _538
REMARK  211  A    between atoms: _537  and  _540
REMARK  212  A    between atoms: _540  and  _541
REMARK  213  A    between atoms: _547  and  _548
REMARK  214  A    between atoms: _553  and  _555
REMARK  215  A    between atoms: _555  and  _556
REMARK  216  A    between atoms: _555  and  _558
REMARK  217  A    between atoms: _561  and  _563
REMARK  218  A    between atoms: _563  and  _564
REMARK  219  A    between atoms: _563  and  _566
REMARK  220  A    between atoms: _566  and  _567
REMARK  221  A    between atoms: _572  and  _574
REMARK  222  A    between atoms: _574  and  _575
REMARK  223  A    between atoms: _574  and  _577
REMARK  224  A    between atoms: _577  and  _578
REMARK  225  A    between atoms: _583  and  _585
REMARK  226  A    between atoms: _585  and  _586
REMARK  227  A    between atoms: _585  and  _588
REMARK  228  A    between atoms: _588  and  _589
REMARK  229  A    between atoms: _589  and  _590
REMARK  230  A    between atoms: _592  and  _594
REMARK  231  A    between atoms: _594  and  _595
REMARK  232  A    between atoms: _594  and  _597
REMARK  233  A    between atoms: _597  and  _598
REMARK  234  A    between atoms: _603  and  _604
REMARK  235  A    between atoms: _606  and  _608
REMARK  236  A    between atoms: _608  and  _609
REMARK  237  A    between atoms: _608  and  _611
REMARK  238  A    between atoms: _611  and  _612
REMARK  239  A    between atoms: _612  and  _613
REMARK  240  A    between atoms: _618  and  _620
REMARK  241  A    between atoms: _620  and  _621
REMARK  242  A    between atoms: _620  and  _623
REMARK  243  A    between atoms: _623  and  _624
REMARK  244  A    between atoms: _628  and  _629
REMARK  245  A    between atoms: _634  and  _636
REMARK  246  A    between atoms: _636  and  _637
REMARK  247  A    between atoms: _636  and  _639
REMARK  248  A    between atoms: _639  and  _640
REMARK  249  A    between atoms: _646  and  _648
REMARK  250  A    between atoms: _648  and  _649
REMARK  251  A    between atoms: _648  and  _651
REMARK  252  A    between atoms: _651  and  _652
REMARK  253  A    between atoms: _652  and  _653
REMARK  254  A    between atoms: _658  and  _660
REMARK  255  A    between atoms: _660  and  _661
REMARK  256  A    between atoms: _660  and  _663
REMARK  257  A    between atoms: _663  and  _664
REMARK  258  A    between atoms: _667  and  _669
REMARK  259  A    between atoms: _669  and  _670
REMARK  260  A    between atoms: _669  and  _672
REMARK  261  A    between atoms: _672  and  _673
REMARK  262  A    between atoms: _678  and  _679
REMARK  263  A    between atoms: _681  and  _683
REMARK  264  A    between atoms: _683  and  _684
REMARK  265  A    between atoms: _683  and  _686
REMARK  266  A    between atoms: _686  and  _687
REMARK  267  A    between atoms: _692  and  _693
REMARK  268  A    between atoms: _695  and  _697
REMARK  269  A    between atoms: _697  and  _698
REMARK  270  A    between atoms: _697  and  _700
REMARK  271  A    between atoms: _700  and  _701
REMARK  272  A    between atoms: _701  and  _702
REMARK  273  A    between atoms: _705  and  _707
REMARK  274  A    between atoms: _707  and  _708
REMARK  275  A    between atoms: _707  and  _710
REMARK  276  A    between atoms: _710  and  _711
REMARK  277  A    between atoms: _711  and  _712
REMARK  278  A    between atoms: _712  and  _713
REMARK  279  A    between atoms: _722  and  _724
REMARK  280  A    between atoms: _724  and  _725
REMARK  281  A    between atoms: _724  and  _727
REMARK  282  A    between atoms: _727  and  _728
REMARK  283  A    between atoms: _738  and  _740
REMARK  284  A    between atoms: _740  and  _741
REMARK  285  A    between atoms: _740  and  _743
REMARK  286  A    between atoms: _743  and  _744
REMARK  287  A    between atoms: _747  and  _749
REMARK  288  A    between atoms: _749  and  _750
REMARK  289  A    between atoms: _753  and  _755
REMARK  290  A    between atoms: _755  and  _756
REMARK  291  A    between atoms: _755  and  _758
REMARK  292  A    between atoms: _758  and  _759
REMARK  293  A    between atoms: _762  and  _764
REMARK  294  A    between atoms: _764  and  _765
REMARK  295  A    between atoms: _764  and  _767
REMARK  296  A    between atoms: _767  and  _768
REMARK  297  A    between atoms: _768  and  _769
REMARK  298  A    between atoms: _769  and  _770
REMARK  299  A    between atoms: _770  and  _771
REMARK  300  A    between atoms: _775  and  _777
REMARK  301  A    between atoms: _777  and  _778
REMARK  302  A    between atoms: _777  and  _780
REMARK  303  A    between atoms: _780  and  _781
REMARK                            x       y       z     vdW  Elec       q    Type
REMARK                         _______ _______ _______ _____ _____    ______ ____
ROOT
ATOM      1  C   ARG A   1     -11.487 -10.982 -18.688  0.00  0.00    +0.241 C 
ATOM      2  N   PRO A   2     -12.752 -10.746 -19.060  0.00  0.00    -0.272 N 
ATOM      3  CD  PRO A   2     -14.004 -11.231 -18.448  0.00  0.00    +0.094 C 
ATOM      4  CG  PRO A   2     -15.058 -10.409 -19.162  0.00  0.00    +0.024 C 
ATOM      5  CB  PRO A   2     -14.484 -10.264 -20.541  0.00  0.00    +0.031 C 
ATOM      6  CA  PRO A   2     -13.025  -9.941 -20.250  0.00  0.00    +0.152 C 
ATOM      7  O   ARG A   1     -10.529 -10.542 -19.322  0.00  0.00    -0.273 OA
ENDROOT
BRANCH   6   8
ATOM      8  C   PRO A   2     -12.781  -8.454 -19.980  0.00  0.00    +0.241 C 
ATOM      9  N   ASP A   3     -11.686  -8.169 -19.277  0.00  0.00    -0.298 N 
ATOM     10  H   ASP A   3     -11.078  -8.954 -18.968  0.00  0.00    +0.150 HD
ATOM     11  O   PRO A   2     -13.566  -7.598 -20.393  0.00  0.00    -0.273 OA
BRANCH   9  12
ATOM     12  CA  ASP A   3     -11.297  -6.805 -18.919  0.00  0.00    +0.148 C 
BRANCH  12  13
ATOM     13  C   ASP A   3      -9.892  -6.505 -19.431  0.00  0.00    +0.227 C 
ATOM     14  O   ASP A   3      -9.123  -7.420 -19.730  0.00  0.00    -0.286 OA
ENDBRANCH  12  13
BRANCH  12  15
ATOM     15  CB  ASP A   3     -11.290  -6.623 -17.393  0.00  0.00    +0.142 C 
BRANCH  15  16
ATOM     16  CG  ASP A   3     -12.529  -7.182 -16.725  0.00  0.00    +0.367 C 
ATOM     17  OD2 ASP A   3     -12.421  -7.627 -15.561  0.00  0.00    -0.246 OA
ATOM     18  OD1 ASP A   3     -13.609  -7.164 -17.350  0.00  0.00    -0.246 OA
ENDBRANCH  15  16
ENDBRANCH  12  15
ENDBRANCH   9  12
ENDBRANCH   6   8
BRANCH   1  19
ATOM     19  CA  ARG A   1     -11.273 -11.826 -17.443  0.00  0.00    +0.145 C 
BRANCH  19  20
ATOM     20  N   ARG A   1      -9.944 -12.414 -17.503  0.00  0.00    -0.238 NA
ATOM     21  H   ARG A   1      -9.113 -11.847 -17.240  0.00  0.00    +0.142 HD
ENDBRANCH  19  20
BRANCH  19  22
ATOM     22  CB  ARG A   1     -11.450 -10.963 -16.188  0.00  0.00    +0.030 C 
BRANCH  22  23
ATOM     23  CG  ARG A   1     -12.321 -11.630 -15.122  0.00  0.00    +0.045 C 
BRANCH  23  24
ATOM     24  CD  ARG A   1     -12.841 -10.627 -14.102  0.00  0.00    +0.174 C 
BRANCH  24  25
ATOM     25  NE  ARG A   1     -13.722  -9.633 -14.705  0.00  0.00    -0.265 N 
ATOM     26  HE  ARG A   1     -13.308  -8.712 -14.955  0.00  0.00    +0.259 HD
ATOM     27  CZ  ARG A   1     -15.016  -9.816 -14.959  0.00  0.00    +0.342 C 
ATOM     28  NH2 ARG A   1     -15.602 -10.969 -14.660  0.00  0.00    -0.292 N 
ATOM     29 HH21 ARG A   1     -15.050 -11.735 -14.225  0.00  0.00    +0.255 HD
ATOM     30 HH22 ARG A   1     -16.613 -11.106 -14.861  0.00  0.00    +0.255 HD
ATOM     31  NH1 ARG A   1     -15.726  -8.841 -15.514  0.00  0.00    -0.292 N 
ATOM     32 HH11 ARG A   1     -16.737  -8.982 -15.713  0.00  0.00    +0.255 HD
ATOM     33 HH12 ARG A   1     -15.271  -7.936 -15.750  0.00  0.00    +0.255 HD
ENDBRANCH  24  25
ENDBRANCH  23  24
ENDBRANCH  22  23
ENDBRANCH  19  22
ENDBRANCH   1  19
TORSDOF 11
REMARK  Name = ../refined-set-2016/1y3p/1y3p_pocket.pdb
REMARK  303 active torsions:
REMARK  status: ('A' for Active; 'I' for Inactive)
REMARK    1  A    between atoms: _1  and  _3
REMARK    2  A    between atoms: _3  and  _4
REMARK    3  A    between atoms: _3  and  _6
REMARK    4  A    between atoms: _6  and  _7
REMARK    5  A    between atoms: _12  and  _14
REMARK    6  A    between atoms: _14  and  _15
REMARK    7  A    between atoms: _14  and  _17
REMARK    8  A    between atoms: _17  and  _18
REMARK    9  A    between atoms: _24  and  _26
REMARK   10  A    between atoms: _26  and  _27
REMARK   11  A    between atoms: _26  and  _29
REMARK   12  A    between atoms: _29  and  _30
REMARK   13  A    between atoms: _30  and  _31
REMARK   14  A    between atoms: _31  and  _32
REMARK   15  A    between atoms: _41  and  _43
REMARK   16  A    between atoms: _43  and  _44
REMARK   17  A    between atoms: _43  and  _46
REMARK   18  A    between atoms: _46  and  _47
REMARK   19  A    between atoms: _50  and  _52
REMARK   20  A    between atoms: _52  and  _53
REMARK   21  A    between atoms: _52  and  _55
REMARK   22  A    between atoms: _55  and  _56
REMARK   23  A    between atoms: _56  and  _57
REMARK   24  A    between atoms: _57  and  _58
REMARK   25  A    between atoms: _58  and  _59
REMARK   26  A    between atoms: _63  and  _65
REMARK   27  A    between atoms: _65  and  _66
REMARK   28  A    between atoms: _65  and  _68
REMARK   29  A    between atoms: _68  and  _69
REMARK   30  A    between atoms: _79  and  _81
REMARK   31  A    between atoms: _81  and  _82
REMARK   32  A    between atoms: _81  and  _84
REMARK   33  A    between atoms: _84  and  _85
REMARK   34  A    between atoms: _88  and  _90
REMARK   35  A    between atoms: _90  and  _91
REMARK   36  A    between atoms: _90  and  _93
REMARK   37  A    between atoms: _93  and  _94
REMARK   38  A    between atoms: _99  and  _101
REMARK   39  A    between atoms: _101  and  _102
REMARK   40  A    between atoms: _101  and  _104
REMARK   41  A    between atoms: _104  and  _105
REMARK   42  A    between atoms: _107  and  _109
REMARK   43  A    between atoms: _109  and  _110
REMARK   44  A    between atoms: _109  and  _112
REMARK   45  A    between atoms: _112  and  _113
REMARK   46  A    between atoms: _113  and  _114
REMARK   47  A    between atoms: _119  and  _121
REMARK   48  A    between atoms: _121  and  _122
REMARK   49  A    between atoms: _121  and  _124
REMARK   50  A    between atoms: _124  and  _125
REMARK   51  A    between atoms: _125  and  _126
REMARK   52  A    between atoms: _129  and  _131
REMARK   53  A    between atoms: _131  and  _132
REMARK   54  A    between atoms: _134  and  _136
REMARK   55  A    between atoms: _136  and  _137
REMARK   56  A    between atoms: _136  and  _139
REMARK   57  A    between atoms: _139  and  _140
REMARK   58  A    between atoms: _143  and  _145
REMARK   59  A    between atoms: _145  and  _146
REMARK   60  A    between atoms: _145  and  _148
REMARK   61  A    between atoms: _148  and  _149
REMARK   62  A    between atoms: _154  and  _156
REMARK   63  A    between atoms: _156  and  _157
REMARK   64  A    between atoms: _156  and  _159
REMARK   65  A    between atoms: _159  and  _160
REMARK   66  A    between atoms: _163  and  _165
REMARK   67  A    between atoms: _165  and  _166
REMARK   68  A    between atoms: _165  and  _168
REMARK   69  A    between atoms: _168  and  _169
REMARK   70  A    between atoms: _169  and  _170
REMARK   71  A    between atoms: _170  and  _171
REMARK   72  A    between atoms: _171  and  _172
REMARK   73  A    between atoms: _176  and  _178
REMARK   74  A    between atoms: _178  and  _179
REMARK   75  A    between atoms: _178  and  _181
REMARK   76  A    between atoms: _181  and  _182
REMARK   77  A    between atoms: _187  and  _188
REMARK   78  A    between atoms: _191  and  _192
REMARK   79  A    between atoms: _197  and  _199
REMARK   80  A    between atoms: _199  and  _200
REMARK   81  A    between atoms: _199  and  _202
REMARK   82  A    between atoms: _202  and  _203
REMARK   83  A    between atoms: _206  and  _208
REMARK   84  A    between atoms: _208  and  _209
REMARK   85  A    between atoms: _211  and  _213
REMARK   86  A    between atoms: _213  and  _214
REMARK   87  A    between atoms: _213  and  _216
REMARK   88  A    between atoms: _219  and  _221
REMARK   89  A    between atoms: _221  and  _222
REMARK   90  A    between atoms: _221  and  _224
REMARK   91  A    between atoms: _224  and  _225
REMARK   92  A    between atoms: _227  and  _229
REMARK   93  A    between atoms: _229  and  _230
REMARK   94  A    between atoms: _229  and  _232
REMARK   95  A    between atoms: _232  and  _233
REMARK   96  A    between atoms: _233  and  _234
REMARK   97  A    between atoms: _234  and  _235
REMARK   98  A    between atoms: _244  and  _246
REMARK   99  A    between atoms: _246  and  _247
REMARK  100  A    between atoms: _246  and  _249
REMARK  101  A    between atoms: _249  and  _250
REMARK  102  A    between atoms: _255  and  _257
REMARK  103  A    between atoms: _257  and  _258
REMARK  104  A    between atoms: _257  and  _260
REMARK  105  A    between atoms: _260  and  _261
REMARK  106  A    between atoms: _261  and  _262
REMARK  107  A    between atoms: _262  and  _263
REMARK  108  A    between atoms: _272  and  _274
REMARK  109  A    between atoms: _274  and  _275
REMARK  110  A    between atoms: _274  and  _277
REMARK  111  A    between atoms: _277  and  _278
REMARK  112  A    between atoms: _282  and  _283
REMARK  113  A    between atoms: _288  and  _290
REMARK  114  A    between atoms: _290  and  _291
REMARK  115  A    between atoms: _290  and  _293
REMARK  116  A    between atoms: _293  and  _294
REMARK  117  A    between atoms: _294  and  _295
REMARK  118  A    between atoms: _298  and  _300
REMARK  119  A    between atoms: _300  and  _301
REMARK  120  A    between atoms: _300  and  _303
REMARK  121  A    between atoms: _303  and  _304
REMARK  122  A    between atoms: _304  and  _305
REMARK  123  A    between atoms: _308  and  _310
REMARK  124  A    between atoms: _310  and  _311
REMARK  125  A    between atoms: _310  and  _313
REMARK  126  A    between atoms: _313  and  _314
REMARK  127  A    between atoms: _319  and  _321
REMARK  128  A    between atoms: _321  and  _322
REMARK  129  A    between atoms: _321  and  _324
REMARK  130  A    between atoms: _324  and  _325
REMARK  131  A    between atoms: _328  and  _330
REMARK  132  A    between atoms: _330  and  _331
REMARK  133  A    between atoms: _330  and  _333
REMARK  134  A    between atoms: _333  and  _334
REMARK  135  A    between atoms: _344  and  _346
REMARK  136  A    between atoms: _346  and  _347
REMARK  137  A    between atoms: _346  and  _349
REMARK  138  A    between atoms: _349  and  _350
REMARK  139  A    between atoms: _350  and  _351
REMARK  140  A    between atoms: _353  and  _355
REMARK  141  A    between atoms: _355  and  _356
REMARK  142  A    between atoms: _355  and  _358
REMARK  143  A    between atoms: _358  and  _359
REMARK  144  A    between atoms: _359  and  _360
REMARK  145  A    between atoms: _360  and  _361
REMARK  146  A    between atoms: _361  and  _362
REMARK  147  A    between atoms: _366  and  _368
REMARK  148  A    between atoms: _368  and  _369
REMARK  149  A    between atoms: _372  and  _374
REMARK  150  A    between atoms: _374  and  _375
REMARK  151  A    between atoms: _374  and  _377
REMARK  152  A    between atoms: _377  and  _378
REMARK  153  A    between atoms: _378  and  _379
REMARK  154  A    between atoms: _379  and  _380
REMARK  155  A    between atoms: _389  and  _391
REMARK  156  A    between atoms: _391  and  _392
REMARK  157  A    between atoms: _391  and  _394
REMARK  158  A    between atoms: _394  and  _395
REMARK  159  A    between atoms: _398  and  _400
REMARK  160  A    between atoms: _400  and  _401
REMARK  161  A    between atoms: _400  and  _403
REMARK  162  A    between atoms: _403  and  _404
REMARK  163  A    between atoms: _414  and  _416
REMARK  164  A    between atoms: _416  and  _417
REMARK  165  A    between atoms: _416  and  _419
REMARK  166  A    between atoms: _419  and  _420
REMARK  167  A    between atoms: _426  and  _428
REMARK  168  A    between atoms: _428  and  _429
REMARK  169  A    between atoms: _432  and  _434
REMARK  170  A    between atoms: _434  and  _435
REMARK  171  A    between atoms: _434  and  _437
REMARK  172  A    between atoms: _437  and  _438
REMARK  173  A    between atoms: _440  and  _442
REMARK  174  A    between atoms: _442  and  _443
REMARK  175  A    between atoms: _442  and  _445
REMARK  176  A    between atoms: _445  and  _446
REMARK  177  A    between atoms: _449  and  _451
REMARK  178  A    between atoms: _451  and  _452
REMARK  179  A    between atoms: _455  and  _457
REMARK  180  A    between atoms: _457  and  _458
REMARK  181  A    between atoms: _457  and  _460
REMARK  182  A    between atoms: _460  and  _461
REMARK  183  A    between atoms: _464  and  _466
REMARK  184  A    between atoms: _466  and  _467
REMARK  185  A    between atoms: _466  and  _469
REMARK  186  A    between atoms: _469  and  _470
REMARK  187  A    between atoms: _473  and  _475
REMARK  188  A    between atoms: _475  and  _476
REMARK  189  A    between atoms: _475  and  _478
REMARK  190  A    between atoms: _478  and  _479
REMARK  191  A    between atoms: _479  and  _480
REMARK  192  A    between atoms: _480  and  _481
REMARK  193  A    between atoms: _490  and  _492
REMARK  194  A    between atoms: _492  and  _493
REMARK  195  A    between atoms: _492  and  _495
REMARK  196  A    between atoms: _495  and  _496
REMARK  197  A    between atoms: _496  and  _497
REMARK  198  A    between atoms: _502  and  _504
REMARK  199  A    between atoms: _504  and  _505
REMARK  200  A    between atoms: _504  and  _507
REMARK  201  A    between atoms: _507  and  _508
REMARK  202  A    between atoms: _508  and  _509
REMARK  203  A    between atoms: _509  and  _510
REMARK  204  A    between atoms: _520  and  _521
REMARK  205  A    between atoms: _526  and  _528
REMARK  206  A    between atoms: _528  and  _529
REMARK  207  A    between atoms: _528  and  _531
REMARK  208  A    between atoms: _531  and  _532
REMARK  209  A    between atoms: _535  and  _537
REMARK  210  A    between atoms: _537  and  _538
REMARK  211  A    between atoms: _537  and  _540
REMARK  212  A    between atoms: _540  and  _541
REMARK  213  A    between atoms: _547  and  _548
REMARK  214  A    between atoms: _553  and  _555
REMARK  215  A    between atoms: _555  and  _556
REMARK  216  A    between atoms: _555  and  _558
REMARK  217  A    between atoms: _561  and  _563
REMARK  218  A    between atoms: _563  and  _564
REMARK  219  A    between atoms: _563  and  _566
REMARK  220  A    between atoms: _566  and  _567
REMARK  221  A    between atoms: _572  and  _574
REMARK  222  A    between atoms: _574  and  _575
REMARK  223  A    between atoms: _574  and  _577
REMARK  224  A    between atoms: _577  and  _578
REMARK  225  A    between atoms: _583  and  _585
REMARK  226  A    between atoms: _585  and  _586
REMARK  227  A    between atoms: _585  and  _588
REMARK  228  A    between atoms: _588  and  _589
REMARK  229  A    between atoms: _589  and  _590
REMARK  230  A    between atoms: _592  and  _594
REMARK  231  A    between atoms: _594  and  _595
REMARK  232  A    between atoms: _594  and  _597
REMARK  233  A    between atoms: _597  and  _598
REMARK  234  A    between atoms: _603  and  _604
REMARK  235  A    between atoms: _606  and  _608
REMARK  236  A    between atoms: _608  and  _609
REMARK  237  A    between atoms: _608  and  _611
REMARK  238  A    between atoms: _611  and  _612
REMARK  239  A    between atoms: _612  and  _613
REMARK  240  A    between atoms: _618  and  _620
REMARK  241  A    between atoms: _620  and  _621
REMARK  242  A    between atoms: _620  and  _623
REMARK  243  A    between atoms: _623  and  _624
REMARK  244  A    between atoms: _628  and  _629
REMARK  245  A    between atoms: _634  and  _636
REMARK  246  A    between atoms: _636  and  _637
REMARK  247  A    between atoms: _636  and  _639
REMARK  248  A    between atoms: _639  and  _640
REMARK  249  A    between atoms: _646  and  _648
REMARK  250  A    between atoms: _648  and  _649
REMARK  251  A    between atoms: _648  and  _651
REMARK  252  A    between atoms: _651  and  _652
REMARK  253  A    between atoms: _652  and  _653
REMARK  254  A    between atoms: _658  and  _660
REMARK  255  A    between atoms: _660  and  _661
REMARK  256  A    between atoms: _660  and  _663
REMARK  257  A    between atoms: _663  and  _664
REMARK  258  A    between atoms: _667  and  _669
REMARK  259  A    between atoms: _669  and  _670
REMARK  260  A    between atoms: _669  and  _672
REMARK  261  A    between atoms: _672  and  _673
REMARK  262  A    between atoms: _678  and  _679
REMARK  263  A    between atoms: _681  and  _683
REMARK  264  A    between atoms: _683  and  _684
REMARK  265  A    between atoms: _683  and  _686
REMARK  266  A    between atoms: _686  and  _687
REMARK  267  A    between atoms: _692  and  _693
REMARK  268  A    between atoms: _695  and  _697
REMARK  269  A    between atoms: _697  and  _698
REMARK  270  A    between atoms: _697  and  _700
REMARK  271  A    between atoms: _700  and  _701
REMARK  272  A    between atoms: _701  and  _702
REMARK  273  A    between atoms: _705  and  _707
REMARK  274  A    between atoms: _707  and  _708
REMARK  275  A    between atoms: _707  and  _710
REMARK  276  A    between atoms: _710  and  _711
REMARK  277  A    between atoms: _711  and  _712
REMARK  278  A    between atoms: _712  and  _713
REMARK  279  A    between atoms: _722  and  _724
REMARK  280  A    between atoms: _724  and  _725
REMARK  281  A    between atoms: _724  and  _727
REMARK  282  A    between atoms: _727  and  _728
REMARK  283  A    between atoms: _738  and  _740
REMARK  284  A    between atoms: _740  and  _741
REMARK  285  A    between atoms: _740  and  _743
REMARK  286  A    between atoms: _743  and  _744
REMARK  287  A    between atoms: _747  and  _749
REMARK  288  A    between atoms: _749  and  _750
REMARK  289  A    between atoms: _753  and  _755
REMARK  290  A    between atoms: _755  and  _756
REMARK  291  A    between atoms: _755  and  _758
REMARK  292  A    between atoms: _758  and  _759
REMARK  293  A    between atoms: _762  and  _764
REMARK  294  A    between atoms: _764  and  _765
REMARK  295  A    between atoms: _764  and  _767
REMARK  296  A    between atoms: _767  and  _768
REMARK  297  A    between atoms: _768  and  _769
REMARK  298  A    between atoms: _769  and  _770
REMARK  299  A    between atoms: _770  and  _771
REMARK  300  A    between atoms: _775  and  _777
REMARK  301  A    between atoms: _777  and  _778
REMARK  302  A    between atoms: _777  and  _780
REMARK  303  A    between atoms: _780  and  _781
REMARK                            x       y       z     vdW  Elec       q    Type
REMARK                         _______ _______ _______ _____ _____    ______ ____
ROOT
ATOM      1  CB  ASN A   1      -0.172  -6.738  -7.293  0.00  0.00    +0.110 C 
ENDROOT
BRANCH   1   2
ATOM      2  CG  ASN A   1      -0.722  -7.679  -8.357  0.00  0.00    +0.221 C 
ATOM      3  OD1 ASN A   1      -1.791  -8.274  -8.189  0.00  0.00    -0.275 OA
ATOM      4  ND2 ASN A   1       0.010  -7.819  -9.458  0.00  0.00    -0.329 N 
ATOM      5 HD21 ASN A   1       0.905  -7.298  -9.557  0.00  0.00    +0.145 HD
ATOM      6 HD22 ASN A   1      -0.312  -8.449 -10.220  0.00  0.00    +0.145 HD
ENDBRANCH   1   2
BRANCH   1   7
ATOM      7  CA  ASN A   1      -0.809  -5.342  -7.336  0.00  0.00    +0.142 C 
BRANCH   7   8
ATOM      8  N   ASN A   1      -0.139  -4.511  -8.334  0.00  0.00    -0.239 NA
ATOM      9  H   ASN A   1       0.900  -4.497  -8.363  0.00  0.00    +0.142 HD
ENDBRANCH   7   8
BRANCH   7  10
ATOM     10  C   ASN A   1      -0.795  -4.761  -5.913  0.00  0.00    +0.225 C 
ATOM     11  O   ASN A   1      -1.834  -4.722  -5.251  0.00  0.00    -0.287 OA
ENDBRANCH   7  10
ENDBRANCH   1   7
TORSDOF 4
REMARK  Name = ../refined-set-2016/1y3p/1y3p_pocket.pdb
REMARK  303 active torsions:
REMARK  status: ('A' for Active; 'I' for Inactive)
REMARK    1  A    between atoms: _1  and  _3
REMARK    2  A    between atoms: _3  and  _4
REMARK    3  A    between atoms: _3  and  _6
REMARK    4  A    between atoms: _6  and  _7
REMARK    5  A    between atoms: _12  and  _14
REMARK    6  A    between atoms: _14  and  _15
REMARK    7  A    between atoms: _14  and  _17
REMARK    8  A    between atoms: _17  and  _18
REMARK    9  A    between atoms: _24  and  _26
REMARK   10  A    between atoms: _26  and  _27
REMARK   11  A    between atoms: _26  and  _29
REMARK   12  A    between atoms: _29  and  _30
REMARK   13  A    between atoms: _30  and  _31
REMARK   14  A    between atoms: _31  and  _32
REMARK   15  A    between atoms: _41  and  _43
REMARK   16  A    between atoms: _43  and  _44
REMARK   17  A    between atoms: _43  and  _46
REMARK   18  A    between atoms: _46  and  _47
REMARK   19  A    between atoms: _50  and  _52
REMARK   20  A    between atoms: _52  and  _53
REMARK   21  A    between atoms: _52  and  _55
REMARK   22  A    between atoms: _55  and  _56
REMARK   23  A    between atoms: _56  and  _57
REMARK   24  A    between atoms: _57  and  _58
REMARK   25  A    between atoms: _58  and  _59
REMARK   26  A    between atoms: _63  and  _65
REMARK   27  A    between atoms: _65  and  _66
REMARK   28  A    between atoms: _65  and  _68
REMARK   29  A    between atoms: _68  and  _69
REMARK   30  A    between atoms: _79  and  _81
REMARK   31  A    between atoms: _81  and  _82
REMARK   32  A    between atoms: _81  and  _84
REMARK   33  A    between atoms: _84  and  _85
REMARK   34  A    between atoms: _88  and  _90
REMARK   35  A    between atoms: _90  and  _91
REMARK   36  A    between atoms: _90  and  _93
REMARK   37  A    between atoms: _93  and  _94
REMARK   38  A    between atoms: _99  and  _101
REMARK   39  A    between atoms: _101  and  _102
REMARK   40  A    between atoms: _101  and  _104
REMARK   41  A    between atoms: _104  and  _105
REMARK   42  A    between atoms: _107  and  _109
REMARK   43  A    between atoms: _109  and  _110
REMARK   44  A    between atoms: _109  and  _112
REMARK   45  A    between atoms: _112  and  _113
REMARK   46  A    between atoms: _113  and  _114
REMARK   47  A    between atoms: _119  and  _121
REMARK   48  A    between atoms: _121  and  _122
REMARK   49  A    between atoms: _121  and  _124
REMARK   50  A    between atoms: _124  and  _125
REMARK   51  A    between atoms: _125  and  _126
REMARK   52  A    between atoms: _129  and  _131
REMARK   53  A    between atoms: _131  and  _132
REMARK   54  A    between atoms: _134  and  _136
REMARK   55  A    between atoms: _136  and  _137
REMARK   56  A    between atoms: _136  and  _139
REMARK   57  A    between atoms: _139  and  _140
REMARK   58  A    between atoms: _143  and  _145
REMARK   59  A    between atoms: _145  and  _146
REMARK   60  A    between atoms: _145  and  _148
REMARK   61  A    between atoms: _148  and  _149
REMARK   62  A    between atoms: _154  and  _156
REMARK   63  A    between atoms: _156  and  _157
REMARK   64  A    between atoms: _156  and  _159
REMARK   65  A    between atoms: _159  and  _160
REMARK   66  A    between atoms: _163  and  _165
REMARK   67  A    between atoms: _165  and  _166
REMARK   68  A    between atoms: _165  and  _168
REMARK   69  A    between atoms: _168  and  _169
REMARK   70  A    between atoms: _169  and  _170
REMARK   71  A    between atoms: _170  and  _171
REMARK   72  A    between atoms: _171  and  _172
REMARK   73  A    between atoms: _176  and  _178
REMARK   74  A    between atoms: _178  and  _179
REMARK   75  A    between atoms: _178  and  _181
REMARK   76  A    between atoms: _181  and  _182
REMARK   77  A    between atoms: _187  and  _188
REMARK   78  A    between atoms: _191  and  _192
REMARK   79  A    between atoms: _197  and  _199
REMARK   80  A    between atoms: _199  and  _200
REMARK   81  A    between atoms: _199  and  _202
REMARK   82  A    between atoms: _202  and  _203
REMARK   83  A    between atoms: _206  and  _208
REMARK   84  A    between atoms: _208  and  _209
REMARK   85  A    between atoms: _211  and  _213
REMARK   86  A    between atoms: _213  and  _214
REMARK   87  A    between atoms: _213  and  _216
REMARK   88  A    between atoms: _219  and  _221
REMARK   89  A    between atoms: _221  and  _222
REMARK   90  A    between atoms: _221  and  _224
REMARK   91  A    between atoms: _224  and  _225
REMARK   92  A    between atoms: _227  and  _229
REMARK   93  A    between atoms: _229  and  _230
REMARK   94  A    between atoms: _229  and  _232
REMARK   95  A    between atoms: _232  and  _233
REMARK   96  A    between atoms: _233  and  _234
REMARK   97  A    between atoms: _234  and  _235
REMARK   98  A    between atoms: _244  and  _246
REMARK   99  A    between atoms: _246  and  _247
REMARK  100  A    between atoms: _246  and  _249
REMARK  101  A    between atoms: _249  and  _250
REMARK  102  A    between atoms: _255  and  _257
REMARK  103  A    between atoms: _257  and  _258
REMARK  104  A    between atoms: _257  and  _260
REMARK  105  A    between atoms: _260  and  _261
REMARK  106  A    between atoms: _261  and  _262
REMARK  107  A    between atoms: _262  and  _263
REMARK  108  A    between atoms: _272  and  _274
REMARK  109  A    between atoms: _274  and  _275
REMARK  110  A    between atoms: _274  and  _277
REMARK  111  A    between atoms: _277  and  _278
REMARK  112  A    between atoms: _282  and  _283
REMARK  113  A    between atoms: _288  and  _290
REMARK  114  A    between atoms: _290  and  _291
REMARK  115  A    between atoms: _290  and  _293
REMARK  116  A    between atoms: _293  and  _294
REMARK  117  A    between atoms: _294  and  _295
REMARK  118  A    between atoms: _298  and  _300
REMARK  119  A    between atoms: _300  and  _301
REMARK  120  A    between atoms: _300  and  _303
REMARK  121  A    between atoms: _303  and  _304
REMARK  122  A    between atoms: _304  and  _305
REMARK  123  A    between atoms: _308  and  _310
REMARK  124  A    between atoms: _310  and  _311
REMARK  125  A    between atoms: _310  and  _313
REMARK  126  A    between atoms: _313  and  _314
REMARK  127  A    between atoms: _319  and  _321
REMARK  128  A    between atoms: _321  and  _322
REMARK  129  A    between atoms: _321  and  _324
REMARK  130  A    between atoms: _324  and  _325
REMARK  131  A    between atoms: _328  and  _330
REMARK  132  A    between atoms: _330  and  _331
REMARK  133  A    between atoms: _330  and  _333
REMARK  134  A    between atoms: _333  and  _334
REMARK  135  A    between atoms: _344  and  _346
REMARK  136  A    between atoms: _346  and  _347
REMARK  137  A    between atoms: _346  and  _349
REMARK  138  A    between atoms: _349  and  _350
REMARK  139  A    between atoms: _350  and  _351
REMARK  140  A    between atoms: _353  and  _355
REMARK  141  A    between atoms: _355  and  _356
REMARK  142  A    between atoms: _355  and  _358
REMARK  143  A    between atoms: _358  and  _359
REMARK  144  A    between atoms: _359  and  _360
REMARK  145  A    between atoms: _360  and  _361
REMARK  146  A    between atoms: _361  and  _362
REMARK  147  A    between atoms: _366  and  _368
REMARK  148  A    between atoms: _368  and  _369
REMARK  149  A    between atoms: _372  and  _374
REMARK  150  A    between atoms: _374  and  _375
REMARK  151  A    between atoms: _374  and  _377
REMARK  152  A    between atoms: _377  and  _378
REMARK  153  A    between atoms: _378  and  _379
REMARK  154  A    between atoms: _379  and  _380
REMARK  155  A    between atoms: _389  and  _391
REMARK  156  A    between atoms: _391  and  _392
REMARK  157  A    between atoms: _391  and  _394
REMARK  158  A    between atoms: _394  and  _395
REMARK  159  A    between atoms: _398  and  _400
REMARK  160  A    between atoms: _400  and  _401
REMARK  161  A    between atoms: _400  and  _403
REMARK  162  A    between atoms: _403  and  _404
REMARK  163  A    between atoms: _414  and  _416
REMARK  164  A    between atoms: _416  and  _417
REMARK  165  A    between atoms: _416  and  _419
REMARK  166  A    between atoms: _419  and  _420
REMARK  167  A    between atoms: _426  and  _428
REMARK  168  A    between atoms: _428  and  _429
REMARK  169  A    between atoms: _432  and  _434
REMARK  170  A    between atoms: _434  and  _435
REMARK  171  A    between atoms: _434  and  _437
REMARK  172  A    between atoms: _437  and  _438
REMARK  173  A    between atoms: _440  and  _442
REMARK  174  A    between atoms: _442  and  _443
REMARK  175  A    between atoms: _442  and  _445
REMARK  176  A    between atoms: _445  and  _446
REMARK  177  A    between atoms: _449  and  _451
REMARK  178  A    between atoms: _451  and  _452
REMARK  179  A    between atoms: _455  and  _457
REMARK  180  A    between atoms: _457  and  _458
REMARK  181  A    between atoms: _457  and  _460
REMARK  182  A    between atoms: _460  and  _461
REMARK  183  A    between atoms: _464  and  _466
REMARK  184  A    between atoms: _466  and  _467
REMARK  185  A    between atoms: _466  and  _469
REMARK  186  A    between atoms: _469  and  _470
REMARK  187  A    between atoms: _473  and  _475
REMARK  188  A    between atoms: _475  and  _476
REMARK  189  A    between atoms: _475  and  _478
REMARK  190  A    between atoms: _478  and  _479
REMARK  191  A    between atoms: _479  and  _480
REMARK  192  A    between atoms: _480  and  _481
REMARK  193  A    between atoms: _490  and  _492
REMARK  194  A    between atoms: _492  and  _493
REMARK  195  A    between atoms: _492  and  _495
REMARK  196  A    between atoms: _495  and  _496
REMARK  197  A    between atoms: _496  and  _497
REMARK  198  A    between atoms: _502  and  _504
REMARK  199  A    between atoms: _504  and  _505
REMARK  200  A    between atoms: _504  and  _507
REMARK  201  A    between atoms: _507  and  _508
REMARK  202  A    between atoms: _508  and  _509
REMARK  203  A    between atoms: _509  and  _510
REMARK  204  A    between atoms: _520  and  _521
REMARK  205  A    between atoms: _526  and  _528
REMARK  206  A    between atoms: _528  and  _529
REMARK  207  A    between atoms: _528  and  _531
REMARK  208  A    between atoms: _531  and  _532
REMARK  209  A    between atoms: _535  and  _537
REMARK  210  A    between atoms: _537  and  _538
REMARK  211  A    between atoms: _537  and  _540
REMARK  212  A    between atoms: _540  and  _541
REMARK  213  A    between atoms: _547  and  _548
REMARK  214  A    between atoms: _553  and  _555
REMARK  215  A    between atoms: _555  and  _556
REMARK  216  A    between atoms: _555  and  _558
REMARK  217  A    between atoms: _561  and  _563
REMARK  218  A    between atoms: _563  and  _564
REMARK  219  A    between atoms: _563  and  _566
REMARK  220  A    between atoms: _566  and  _567
REMARK  221  A    between atoms: _572  and  _574
REMARK  222  A    between atoms: _574  and  _575
REMARK  223  A    between atoms: _574  and  _577
REMARK  224  A    between atoms: _577  and  _578
REMARK  225  A    between atoms: _583  and  _585
REMARK  226  A    between atoms: _585  and  _586
REMARK  227  A    between atoms: _585  and  _588
REMARK  228  A    between atoms: _588  and  _589
REMARK  229  A    between atoms: _589  and  _590
REMARK  230  A    between atoms: _592  and  _594
REMARK  231  A    between atoms: _594  and  _595
REMARK  232  A    between atoms: _594  and  _597
REMARK  233  A    between atoms: _597  and  _598
REMARK  234  A    between atoms: _603  and  _604
REMARK  235  A    between atoms: _606  and  _608
REMARK  236  A    between atoms: _608  and  _609
REMARK  237  A    between atoms: _608  and  _611
REMARK  238  A    between atoms: _611  and  _612
REMARK  239  A    between atoms: _612  and  _613
REMARK  240  A    between atoms: _618  and  _620
REMARK  241  A    between atoms: _620  and  _621
REMARK  242  A    between atoms: _620  and  _623
REMARK  243  A    between atoms: _623  and  _624
REMARK  244  A    between atoms: _628  and  _629
REMARK  245  A    between atoms: _634  and  _636
REMARK  246  A    between atoms: _636  and  _637
REMARK  247  A    between atoms: _636  and  _639
REMARK  248  A    between atoms: _639  and  _640
REMARK  249  A    between atoms: _646  and  _648
REMARK  250  A    between atoms: _648  and  _649
REMARK  251  A    between atoms: _648  and  _651
REMARK  252  A    between atoms: _651  and  _652
REMARK  253  A    between atoms: _652  and  _653
REMARK  254  A    between atoms: _658  and  _660
REMARK  255  A    between atoms: _660  and  _661
REMARK  256  A    between atoms: _660  and  _663
REMARK  257  A    between atoms: _663  and  _664
REMARK  258  A    between atoms: _667  and  _669
REMARK  259  A    between atoms: _669  and  _670
REMARK  260  A    between atoms: _669  and  _672
REMARK  261  A    between atoms: _672  and  _673
REMARK  262  A    between atoms: _678  and  _679
REMARK  263  A    between atoms: _681  and  _683
REMARK  264  A    between atoms: _683  and  _684
REMARK  265  A    between atoms: _683  and  _686
REMARK  266  A    between atoms: _686  and  _687
REMARK  267  A    between atoms: _692  and  _693
REMARK  268  A    between atoms: _695  and  _697
REMARK  269  A    between atoms: _697  and  _698
REMARK  270  A    between atoms: _697  and  _700
REMARK  271  A    between atoms: _700  and  _701
REMARK  272  A    between atoms: _701  and  _702
REMARK  273  A    between atoms: _705  and  _707
REMARK  274  A    between atoms: _707  and  _708
REMARK  275  A    between atoms: _707  and  _710
REMARK  276  A    between atoms: _710  and  _711
REMARK  277  A    between atoms: _711  and  _712
REMARK  278  A    between atoms: _712  and  _713
REMARK  279  A    between atoms: _722  and  _724
REMARK  280  A    between atoms: _724  and  _725
REMARK  281  A    between atoms: _724  and  _727
REMARK  282  A    between atoms: _727  and  _728
REMARK  283  A    between atoms: _738  and  _740
REMARK  284  A    between atoms: _740  and  _741
REMARK  285  A    between atoms: _740  and  _743
REMARK  286  A    between atoms: _743  and  _744
REMARK  287  A    between atoms: _747  and  _749
REMARK  288  A    between atoms: _749  and  _750
REMARK  289  A    between atoms: _753  and  _755
REMARK  290  A    between atoms: _755  and  _756
REMARK  291  A    between atoms: _755  and  _758
REMARK  292  A    between atoms: _758  and  _759
REMARK  293  A    between atoms: _762  and  _764
REMARK  294  A    between atoms: _764  and  _765
REMARK  295  A    between atoms: _764  and  _767
REMARK  296  A    between atoms: _767  and  _768
REMARK  297  A    between atoms: _768  and  _769
REMARK  298  A    between atoms: _769  and  _770
REMARK  299  A    between atoms: _770  and  _771
REMARK  300  A    between atoms: _775  and  _777
REMARK  301  A    between atoms: _777  and  _778
REMARK  302  A    between atoms: _777  and  _780
REMARK  303  A    between atoms: _780  and  _781
REMARK                            x       y       z     vdW  Elec       q    Type
REMARK                         _______ _______ _______ _____ _____    ______ ____
ROOT
ATOM      1  CA  ASN A   3      -8.634  -4.419  -2.605  0.00  0.00    +0.158 C 
ENDROOT
BRANCH   1   4
ATOM      2  C   VAL A   2      -7.600  -3.998  -0.483  0.00  0.00    +0.241 C 
ATOM      3  O   VAL A   2      -6.930  -3.105  -1.007  0.00  0.00    -0.273 OA
ATOM      4  N   ASN A   3      -8.477  -4.723  -1.183  0.00  0.00    -0.297 N 
ATOM      5  H   ASN A   3      -9.030  -5.479  -0.731  0.00  0.00    +0.150 HD
BRANCH   2   6
ATOM      6  CA  VAL A   2      -7.426  -4.288   1.010  0.00  0.00    +0.148 C 
BRANCH   6   8
ATOM      7  C   PRO A   1      -9.675  -3.868   1.795  0.00  0.00    +0.239 C 
ATOM      8  N   VAL A   2      -8.629  -4.679   1.725  0.00  0.00    -0.297 N 
ATOM      9  H   VAL A   2      -8.670  -5.609   2.189  0.00  0.00    +0.150 HD
ATOM     10  O   PRO A   1      -9.704  -2.768   1.239  0.00  0.00    -0.274 OA
BRANCH   7  15
ATOM     11  N   PRO A   1     -11.570  -3.173   3.118  0.00  0.00    -0.210 NA
ATOM     12  CD  PRO A   1     -12.991  -3.178   2.728  0.00  0.00    +0.089 C 
ATOM     13  CG  PRO A   1     -13.220  -4.637   2.377  0.00  0.00    +0.021 C 
ATOM     14  CB  PRO A   1     -11.928  -5.018   1.708  0.00  0.00    +0.028 C 
ATOM     15  CA  PRO A   1     -10.876  -4.359   2.597  0.00  0.00    +0.149 C 
ENDBRANCH   7  15
ENDBRANCH   6   8
BRANCH   6  16
ATOM     16  CB  VAL A   2      -6.312  -5.336   1.212  0.00  0.00    +0.027 C 
ATOM     17  CG2 VAL A   2      -5.927  -5.388   2.687  0.00  0.00    +0.002 C 
ATOM     18  CG1 VAL A   2      -5.097  -4.988   0.369  0.00  0.00    +0.002 C 
ENDBRANCH   6  16
ENDBRANCH   2   6
ENDBRANCH   1   4
BRANCH   1  19
ATOM     19  C   ASN A   3      -9.259  -3.042  -2.795  0.00  0.00    +0.241 C 
ATOM     20  N   ASN A   4     -10.206  -2.681  -1.931  0.00  0.00    -0.298 N 
ATOM     21  H   ASN A   4     -10.508  -3.347  -1.191  0.00  0.00    +0.150 HD
ATOM     22  O   ASN A   3      -8.867  -2.300  -3.699  0.00  0.00    -0.273 OA
BRANCH  20  23
ATOM     23  CA  ASN A   4     -10.827  -1.358  -2.011  0.00  0.00    +0.146 C 
BRANCH  23  24
ATOM     24  C   ASN A   4      -9.752  -0.289  -1.840  0.00  0.00    +0.227 C 
ATOM     25  O   ASN A   4      -9.798   0.765  -2.484  0.00  0.00    -0.286 OA
ENDBRANCH  23  24
BRANCH  23  26
ATOM     26  CB  ASN A   4     -11.874  -1.174  -0.909  0.00  0.00    +0.112 C 
BRANCH  26  27
ATOM     27  CG  ASN A   4     -13.257  -1.616  -1.332  0.00  0.00    +0.222 C 
ATOM     28  ND2 ASN A   4     -13.806  -2.599  -0.628  0.00  0.00    -0.329 N 
ATOM     29 HD21 ASN A   4     -13.284  -3.026   0.164  0.00  0.00    +0.145 HD
ATOM     30 HD22 ASN A   4     -14.758  -2.942  -0.868  0.00  0.00    +0.145 HD
ATOM     31  OD1 ASN A   4     -13.830  -1.076  -2.278  0.00  0.00    -0.275 OA
ENDBRANCH  26  27
ENDBRANCH  23  26
ENDBRANCH  20  23
ENDBRANCH   1  19
BRANCH   1  32
ATOM     32  CB  ASN A   3      -9.412  -5.518  -3.375  0.00  0.00    +0.114 C 
BRANCH  32  33
ATOM     33  CG  ASN A   3     -10.733  -5.922  -2.719  0.00  0.00    +0.222 C 
ATOM     34  OD1 ASN A   3     -11.101  -5.435  -1.655  0.00  0.00    -0.275 OA
ATOM     35  ND2 ASN A   3     -11.449  -6.840  -3.372  0.00  0.00    -0.329 N 
ATOM     36 HD21 ASN A   3     -12.355  -7.168  -2.981  0.00  0.00    +0.145 HD
ATOM     37 HD22 ASN A   3     -11.101  -7.228  -4.272  0.00  0.00    +0.145 HD
ENDBRANCH  32  33
ENDBRANCH   1  32
TORSDOF 12
REMARK  Name = ../refined-set-2016/1y3p/1y3p_pocket.pdb
REMARK  303 active torsions:
REMARK  status: ('A' for Active; 'I' for Inactive)
REMARK    1  A    between atoms: _1  and  _3
REMARK    2  A    between atoms: _3  and  _4
REMARK    3  A    between atoms: _3  and  _6
REMARK    4  A    between atoms: _6  and  _7
REMARK    5  A    between atoms: _12  and  _14
REMARK    6  A    between atoms: _14  and  _15
REMARK    7  A    between atoms: _14  and  _17
REMARK    8  A    between atoms: _17  and  _18
REMARK    9  A    between atoms: _24  and  _26
REMARK   10  A    between atoms: _26  and  _27
REMARK   11  A    between atoms: _26  and  _29
REMARK   12  A    between atoms: _29  and  _30
REMARK   13  A    between atoms: _30  and  _31
REMARK   14  A    between atoms: _31  and  _32
REMARK   15  A    between atoms: _41  and  _43
REMARK   16  A    between atoms: _43  and  _44
REMARK   17  A    between atoms: _43  and  _46
REMARK   18  A    between atoms: _46  and  _47
REMARK   19  A    between atoms: _50  and  _52
REMARK   20  A    between atoms: _52  and  _53
REMARK   21  A    between atoms: _52  and  _55
REMARK   22  A    between atoms: _55  and  _56
REMARK   23  A    between atoms: _56  and  _57
REMARK   24  A    between atoms: _57  and  _58
REMARK   25  A    between atoms: _58  and  _59
REMARK   26  A    between atoms: _63  and  _65
REMARK   27  A    between atoms: _65  and  _66
REMARK   28  A    between atoms: _65  and  _68
REMARK   29  A    between atoms: _68  and  _69
REMARK   30  A    between atoms: _79  and  _81
REMARK   31  A    between atoms: _81  and  _82
REMARK   32  A    between atoms: _81  and  _84
REMARK   33  A    between atoms: _84  and  _85
REMARK   34  A    between atoms: _88  and  _90
REMARK   35  A    between atoms: _90  and  _91
REMARK   36  A    between atoms: _90  and  _93
REMARK   37  A    between atoms: _93  and  _94
REMARK   38  A    between atoms: _99  and  _101
REMARK   39  A    between atoms: _101  and  _102
REMARK   40  A    between atoms: _101  and  _104
REMARK   41  A    between atoms: _104  and  _105
REMARK   42  A    between atoms: _107  and  _109
REMARK   43  A    between atoms: _109  and  _110
REMARK   44  A    between atoms: _109  and  _112
REMARK   45  A    between atoms: _112  and  _113
REMARK   46  A    between atoms: _113  and  _114
REMARK   47  A    between atoms: _119  and  _121
REMARK   48  A    between atoms: _121  and  _122
REMARK   49  A    between atoms: _121  and  _124
REMARK   50  A    between atoms: _124  and  _125
REMARK   51  A    between atoms: _125  and  _126
REMARK   52  A    between atoms: _129  and  _131
REMARK   53  A    between atoms: _131  and  _132
REMARK   54  A    between atoms: _134  and  _136
REMARK   55  A    between atoms: _136  and  _137
REMARK   56  A    between atoms: _136  and  _139
REMARK   57  A    between atoms: _139  and  _140
REMARK   58  A    between atoms: _143  and  _145
REMARK   59  A    between atoms: _145  and  _146
REMARK   60  A    between atoms: _145  and  _148
REMARK   61  A    between atoms: _148  and  _149
REMARK   62  A    between atoms: _154  and  _156
REMARK   63  A    between atoms: _156  and  _157
REMARK   64  A    between atoms: _156  and  _159
REMARK   65  A    between atoms: _159  and  _160
REMARK   66  A    between atoms: _163  and  _165
REMARK   67  A    between atoms: _165  and  _166
REMARK   68  A    between atoms: _165  and  _168
REMARK   69  A    between atoms: _168  and  _169
REMARK   70  A    between atoms: _169  and  _170
REMARK   71  A    between atoms: _170  and  _171
REMARK   72  A    between atoms: _171  and  _172
REMARK   73  A    between atoms: _176  and  _178
REMARK   74  A    between atoms: _178  and  _179
REMARK   75  A    between atoms: _178  and  _181
REMARK   76  A    between atoms: _181  and  _182
REMARK   77  A    between atoms: _187  and  _188
REMARK   78  A    between atoms: _191  and  _192
REMARK   79  A    between atoms: _197  and  _199
REMARK   80  A    between atoms: _199  and  _200
REMARK   81  A    between atoms: _199  and  _202
REMARK   82  A    between atoms: _202  and  _203
REMARK   83  A    between atoms: _206  and  _208
REMARK   84  A    between atoms: _208  and  _209
REMARK   85  A    between atoms: _211  and  _213
REMARK   86  A    between atoms: _213  and  _214
REMARK   87  A    between atoms: _213  and  _216
REMARK   88  A    between atoms: _219  and  _221
REMARK   89  A    between atoms: _221  and  _222
REMARK   90  A    between atoms: _221  and  _224
REMARK   91  A    between atoms: _224  and  _225
REMARK   92  A    between atoms: _227  and  _229
REMARK   93  A    between atoms: _229  and  _230
REMARK   94  A    between atoms: _229  and  _232
REMARK   95  A    between atoms: _232  and  _233
REMARK   96  A    between atoms: _233  and  _234
REMARK   97  A    between atoms: _234  and  _235
REMARK   98  A    between atoms: _244  and  _246
REMARK   99  A    between atoms: _246  and  _247
REMARK  100  A    between atoms: _246  and  _249
REMARK  101  A    between atoms: _249  and  _250
REMARK  102  A    between atoms: _255  and  _257
REMARK  103  A    between atoms: _257  and  _258
REMARK  104  A    between atoms: _257  and  _260
REMARK  105  A    between atoms: _260  and  _261
REMARK  106  A    between atoms: _261  and  _262
REMARK  107  A    between atoms: _262  and  _263
REMARK  108  A    between atoms: _272  and  _274
REMARK  109  A    between atoms: _274  and  _275
REMARK  110  A    between atoms: _274  and  _277
REMARK  111  A    between atoms: _277  and  _278
REMARK  112  A    between atoms: _282  and  _283
REMARK  113  A    between atoms: _288  and  _290
REMARK  114  A    between atoms: _290  and  _291
REMARK  115  A    between atoms: _290  and  _293
REMARK  116  A    between atoms: _293  and  _294
REMARK  117  A    between atoms: _294  and  _295
REMARK  118  A    between atoms: _298  and  _300
REMARK  119  A    between atoms: _300  and  _301
REMARK  120  A    between atoms: _300  and  _303
REMARK  121  A    between atoms: _303  and  _304
REMARK  122  A    between atoms: _304  and  _305
REMARK  123  A    between atoms: _308  and  _310
REMARK  124  A    between atoms: _310  and  _311
REMARK  125  A    between atoms: _310  and  _313
REMARK  126  A    between atoms: _313  and  _314
REMARK  127  A    between atoms: _319  and  _321
REMARK  128  A    between atoms: _321  and  _322
REMARK  129  A    between atoms: _321  and  _324
REMARK  130  A    between atoms: _324  and  _325
REMARK  131  A    between atoms: _328  and  _330
REMARK  132  A    between atoms: _330  and  _331
REMARK  133  A    between atoms: _330  and  _333
REMARK  134  A    between atoms: _333  and  _334
REMARK  135  A    between atoms: _344  and  _346
REMARK  136  A    between atoms: _346  and  _347
REMARK  137  A    between atoms: _346  and  _349
REMARK  138  A    between atoms: _349  and  _350
REMARK  139  A    between atoms: _350  and  _351
REMARK  140  A    between atoms: _353  and  _355
REMARK  141  A    between atoms: _355  and  _356
REMARK  142  A    between atoms: _355  and  _358
REMARK  143  A    between atoms: _358  and  _359
REMARK  144  A    between atoms: _359  and  _360
REMARK  145  A    between atoms: _360  and  _361
REMARK  146  A    between atoms: _361  and  _362
REMARK  147  A    between atoms: _366  and  _368
REMARK  148  A    between atoms: _368  and  _369
REMARK  149  A    between atoms: _372  and  _374
REMARK  150  A    between atoms: _374  and  _375
REMARK  151  A    between atoms: _374  and  _377
REMARK  152  A    between atoms: _377  and  _378
REMARK  153  A    between atoms: _378  and  _379
REMARK  154  A    between atoms: _379  and  _380
REMARK  155  A    between atoms: _389  and  _391
REMARK  156  A    between atoms: _391  and  _392
REMARK  157  A    between atoms: _391  and  _394
REMARK  158  A    between atoms: _394  and  _395
REMARK  159  A    between atoms: _398  and  _400
REMARK  160  A    between atoms: _400  and  _401
REMARK  161  A    between atoms: _400  and  _403
REMARK  162  A    between atoms: _403  and  _404
REMARK  163  A    between atoms: _414  and  _416
REMARK  164  A    between atoms: _416  and  _417
REMARK  165  A    between atoms: _416  and  _419
REMARK  166  A    between atoms: _419  and  _420
REMARK  167  A    between atoms: _426  and  _428
REMARK  168  A    between atoms: _428  and  _429
REMARK  169  A    between atoms: _432  and  _434
REMARK  170  A    between atoms: _434  and  _435
REMARK  171  A    between atoms: _434  and  _437
REMARK  172  A    between atoms: _437  and  _438
REMARK  173  A    between atoms: _440  and  _442
REMARK  174  A    between atoms: _442  and  _443
REMARK  175  A    between atoms: _442  and  _445
REMARK  176  A    between atoms: _445  and  _446
REMARK  177  A    between atoms: _449  and  _451
REMARK  178  A    between atoms: _451  and  _452
REMARK  179  A    between atoms: _455  and  _457
REMARK  180  A    between atoms: _457  and  _458
REMARK  181  A    between atoms: _457  and  _460
REMARK  182  A    between atoms: _460  and  _461
REMARK  183  A    between atoms: _464  and  _466
REMARK  184  A    between atoms: _466  and  _467
REMARK  185  A    between atoms: _466  and  _469
REMARK  186  A    between atoms: _469  and  _470
REMARK  187  A    between atoms: _473  and  _475
REMARK  188  A    between atoms: _475  and  _476
REMARK  189  A    between atoms: _475  and  _478
REMARK  190  A    between atoms: _478  and  _479
REMARK  191  A    between atoms: _479  and  _480
REMARK  192  A    between atoms: _480  and  _481
REMARK  193  A    between atoms: _490  and  _492
REMARK  194  A    between atoms: _492  and  _493
REMARK  195  A    between atoms: _492  and  _495
REMARK  196  A    between atoms: _495  and  _496
REMARK  197  A    between atoms: _496  and  _497
REMARK  198  A    between atoms: _502  and  _504
REMARK  199  A    between atoms: _504  and  _505
REMARK  200  A    between atoms: _504  and  _507
REMARK  201  A    between atoms: _507  and  _508
REMARK  202  A    between atoms: _508  and  _509
REMARK  203  A    between atoms: _509  and  _510
REMARK  204  A    between atoms: _520  and  _521
REMARK  205  A    between atoms: _526  and  _528
REMARK  206  A    between atoms: _528  and  _529
REMARK  207  A    between atoms: _528  and  _531
REMARK  208  A    between atoms: _531  and  _532
REMARK  209  A    between atoms: _535  and  _537
REMARK  210  A    between atoms: _537  and  _538
REMARK  211  A    between atoms: _537  and  _540
REMARK  212  A    between atoms: _540  and  _541
REMARK  213  A    between atoms: _547  and  _548
REMARK  214  A    between atoms: _553  and  _555
REMARK  215  A    between atoms: _555  and  _556
REMARK  216  A    between atoms: _555  and  _558
REMARK  217  A    between atoms: _561  and  _563
REMARK  218  A    between atoms: _563  and  _564
REMARK  219  A    between atoms: _563  and  _566
REMARK  220  A    between atoms: _566  and  _567
REMARK  221  A    between atoms: _572  and  _574
REMARK  222  A    between atoms: _574  and  _575
REMARK  223  A    between atoms: _574  and  _577
REMARK  224  A    between atoms: _577  and  _578
REMARK  225  A    between atoms: _583  and  _585
REMARK  226  A    between atoms: _585  and  _586
REMARK  227  A    between atoms: _585  and  _588
REMARK  228  A    between atoms: _588  and  _589
REMARK  229  A    between atoms: _589  and  _590
REMARK  230  A    between atoms: _592  and  _594
REMARK  231  A    between atoms: _594  and  _595
REMARK  232  A    between atoms: _594  and  _597
REMARK  233  A    between atoms: _597  and  _598
REMARK  234  A    between atoms: _603  and  _604
REMARK  235  A    between atoms: _606  and  _608
REMARK  236  A    between atoms: _608  and  _609
REMARK  237  A    between atoms: _608  and  _611
REMARK  238  A    between atoms: _611  and  _612
REMARK  239  A    between atoms: _612  and  _613
REMARK  240  A    between atoms: _618  and  _620
REMARK  241  A    between atoms: _620  and  _621
REMARK  242  A    between atoms: _620  and  _623
REMARK  243  A    between atoms: _623  and  _624
REMARK  244  A    between atoms: _628  and  _629
REMARK  245  A    between atoms: _634  and  _636
REMARK  246  A    between atoms: _636  and  _637
REMARK  247  A    between atoms: _636  and  _639
REMARK  248  A    between atoms: _639  and  _640
REMARK  249  A    between atoms: _646  and  _648
REMARK  250  A    between atoms: _648  and  _649
REMARK  251  A    between atoms: _648  and  _651
REMARK  252  A    between atoms: _651  and  _652
REMARK  253  A    between atoms: _652  and  _653
REMARK  254  A    between atoms: _658  and  _660
REMARK  255  A    between atoms: _660  and  _661
REMARK  256  A    between atoms: _660  and  _663
REMARK  257  A    between atoms: _663  and  _664
REMARK  258  A    between atoms: _667  and  _669
REMARK  259  A    between atoms: _669  and  _670
REMARK  260  A    between atoms: _669  and  _672
REMARK  261  A    between atoms: _672  and  _673
REMARK  262  A    between atoms: _678  and  _679
REMARK  263  A    between atoms: _681  and  _683
REMARK  264  A    between atoms: _683  and  _684
REMARK  265  A    between atoms: _683  and  _686
REMARK  266  A    between atoms: _686  and  _687
REMARK  267  A    between atoms: _692  and  _693
REMARK  268  A    between atoms: _695  and  _697
REMARK  269  A    between atoms: _697  and  _698
REMARK  270  A    between atoms: _697  and  _700
REMARK  271  A    between atoms: _700  and  _701
REMARK  272  A    between atoms: _701  and  _702
REMARK  273  A    between atoms: _705  and  _707
REMARK  274  A    between atoms: _707  and  _708
REMARK  275  A    between atoms: _707  and  _710
REMARK  276  A    between atoms: _710  and  _711
REMARK  277  A    between atoms: _711  and  _712
REMARK  278  A    between atoms: _712  and  _713
REMARK  279  A    between atoms: _722  and  _724
REMARK  280  A    between atoms: _724  and  _725
REMARK  281  A    between atoms: _724  and  _727
REMARK  282  A    between atoms: _727  and  _728
REMARK  283  A    between atoms: _738  and  _740
REMARK  284  A    between atoms: _740  and  _741
REMARK  285  A    between atoms: _740  and  _743
REMARK  286  A    between atoms: _743  and  _744
REMARK  287  A    between atoms: _747  and  _749
REMARK  288  A    between atoms: _749  and  _750
REMARK  289  A    between atoms: _753  and  _755
REMARK  290  A    between atoms: _755  and  _756
REMARK  291  A    between atoms: _755  and  _758
REMARK  292  A    between atoms: _758  and  _759
REMARK  293  A    between atoms: _762  and  _764
REMARK  294  A    between atoms: _764  and  _765
REMARK  295  A    between atoms: _764  and  _767
REMARK  296  A    between atoms: _767  and  _768
REMARK  297  A    between atoms: _768  and  _769
REMARK  298  A    between atoms: _769  and  _770
REMARK  299  A    between atoms: _770  and  _771
REMARK  300  A    between atoms: _775  and  _777
REMARK  301  A    between atoms: _777  and  _778
REMARK  302  A    between atoms: _777  and  _780
REMARK  303  A    between atoms: _780  and  _781
REMARK                            x       y       z     vdW  Elec       q    Type
REMARK                         _______ _______ _______ _____ _____    ______ ____
ROOT
ATOM      1  CA  TYR A   2      -8.499   0.826  -6.087  0.00  0.00    +0.141 C 
ENDROOT
BRANCH   1   3
ATOM      2  C   MET A   1      -6.426   0.287  -4.912  0.00  0.00    +0.238 C 
ATOM      3  N   TYR A   2      -7.739   0.110  -5.062  0.00  0.00    -0.298 N 
ATOM      4  H   TYR A   2      -8.236  -0.554  -4.434  0.00  0.00    +0.150 HD
ATOM      5  O   MET A   1      -5.773   1.067  -5.604  0.00  0.00    -0.274 OA
BRANCH   2   6
ATOM      6  CA  MET A   1      -5.742  -0.519  -3.809  0.00  0.00    +0.146 C 
BRANCH   6   7
ATOM      7  N   MET A   1      -6.576  -0.573  -2.618  0.00  0.00    -0.238 NA
ATOM      8  H   MET A   1      -6.988  -1.479  -2.316  0.00  0.00    +0.142 HD
ENDBRANCH   6   7
BRANCH   6   9
ATOM      9  CB  MET A   1      -5.422  -1.933  -4.306  0.00  0.00    +0.038 C 
BRANCH   9  10
ATOM     10  CG  MET A   1      -4.580  -2.761  -3.338  0.00  0.00    +0.060 C 
BRANCH  10  11
ATOM     11  SD  MET A   1      -2.920  -2.086  -3.024  0.00  0.00    -0.139 S 
ATOM     12  CE  MET A   1      -3.234  -1.142  -1.520  0.00  0.00    +0.069 C 
ENDBRANCH  10  11
ENDBRANCH   9  10
ENDBRANCH   6   9
ENDBRANCH   2   6
ENDBRANCH   1   3
BRANCH   1  13
ATOM     13  C   TYR A   2      -8.307   2.333  -5.914  0.00  0.00    +0.227 C 
ATOM     14  O   TYR A   2      -8.184   3.076  -6.886  0.00  0.00    -0.286 OA
ENDBRANCH   1  13
BRANCH   1  15
ATOM     15  CB  TYR A   2     -10.007   0.521  -5.988  0.00  0.00    +0.054 C 
BRANCH  15  16
ATOM     16  CG  TYR A   2     -10.417  -0.943  -6.068  0.00  0.00    -0.020 A 
ATOM     17  CD2 TYR A   2     -11.589  -1.383  -5.447  0.00  0.00    -0.001 A 
ATOM     18  CE2 TYR A   2     -12.015  -2.706  -5.554  0.00  0.00    +0.036 A 
ATOM     19  CZ  TYR A   2     -11.266  -3.614  -6.286  0.00  0.00    +0.134 A 
ATOM     20  CE1 TYR A   2     -10.096  -3.204  -6.914  0.00  0.00    +0.036 A 
ATOM     21  CD1 TYR A   2      -9.677  -1.870  -6.802  0.00  0.00    -0.001 A 
BRANCH  19  22
ATOM     22  OH  TYR A   2     -11.683  -4.932  -6.370  0.00  0.00    -0.506 OA
ATOM     23  HH  TYR A   2     -11.043  -5.445  -6.925  0.00  0.00    +0.292 HD
ENDBRANCH  19  22
ENDBRANCH  15  16
ENDBRANCH   1  15
TORSDOF 10
REMARK  Name = ../refined-set-2016/1y3p/1y3p_pocket.pdb
REMARK  303 active torsions:
REMARK  status: ('A' for Active; 'I' for Inactive)
REMARK    1  A    between atoms: _1  and  _3
REMARK    2  A    between atoms: _3  and  _4
REMARK    3  A    between atoms: _3  and  _6
REMARK    4  A    between atoms: _6  and  _7
REMARK    5  A    between atoms: _12  and  _14
REMARK    6  A    between atoms: _14  and  _15
REMARK    7  A    between atoms: _14  and  _17
REMARK    8  A    between atoms: _17  and  _18
REMARK    9  A    between atoms: _24  and  _26
REMARK   10  A    between atoms: _26  and  _27
REMARK   11  A    between atoms: _26  and  _29
REMARK   12  A    between atoms: _29  and  _30
REMARK   13  A    between atoms: _30  and  _31
REMARK   14  A    between atoms: _31  and  _32
REMARK   15  A    between atoms: _41  and  _43
REMARK   16  A    between atoms: _43  and  _44
REMARK   17  A    between atoms: _43  and  _46
REMARK   18  A    between atoms: _46  and  _47
REMARK   19  A    between atoms: _50  and  _52
REMARK   20  A    between atoms: _52  and  _53
REMARK   21  A    between atoms: _52  and  _55
REMARK   22  A    between atoms: _55  and  _56
REMARK   23  A    between atoms: _56  and  _57
REMARK   24  A    between atoms: _57  and  _58
REMARK   25  A    between atoms: _58  and  _59
REMARK   26  A    between atoms: _63  and  _65
REMARK   27  A    between atoms: _65  and  _66
REMARK   28  A    between atoms: _65  and  _68
REMARK   29  A    between atoms: _68  and  _69
REMARK   30  A    between atoms: _79  and  _81
REMARK   31  A    between atoms: _81  and  _82
REMARK   32  A    between atoms: _81  and  _84
REMARK   33  A    between atoms: _84  and  _85
REMARK   34  A    between atoms: _88  and  _90
REMARK   35  A    between atoms: _90  and  _91
REMARK   36  A    between atoms: _90  and  _93
REMARK   37  A    between atoms: _93  and  _94
REMARK   38  A    between atoms: _99  and  _101
REMARK   39  A    between atoms: _101  and  _102
REMARK   40  A    between atoms: _101  and  _104
REMARK   41  A    between atoms: _104  and  _105
REMARK   42  A    between atoms: _107  and  _109
REMARK   43  A    between atoms: _109  and  _110
REMARK   44  A    between atoms: _109  and  _112
REMARK   45  A    between atoms: _112  and  _113
REMARK   46  A    between atoms: _113  and  _114
REMARK   47  A    between atoms: _119  and  _121
REMARK   48  A    between atoms: _121  and  _122
REMARK   49  A    between atoms: _121  and  _124
REMARK   50  A    between atoms: _124  and  _125
REMARK   51  A    between atoms: _125  and  _126
REMARK   52  A    between atoms: _129  and  _131
REMARK   53  A    between atoms: _131  and  _132
REMARK   54  A    between atoms: _134  and  _136
REMARK   55  A    between atoms: _136  and  _137
REMARK   56  A    between atoms: _136  and  _139
REMARK   57  A    between atoms: _139  and  _140
REMARK   58  A    between atoms: _143  and  _145
REMARK   59  A    between atoms: _145  and  _146
REMARK   60  A    between atoms: _145  and  _148
REMARK   61  A    between atoms: _148  and  _149
REMARK   62  A    between atoms: _154  and  _156
REMARK   63  A    between atoms: _156  and  _157
REMARK   64  A    between atoms: _156  and  _159
REMARK   65  A    between atoms: _159  and  _160
REMARK   66  A    between atoms: _163  and  _165
REMARK   67  A    between atoms: _165  and  _166
REMARK   68  A    between atoms: _165  and  _168
REMARK   69  A    between atoms: _168  and  _169
REMARK   70  A    between atoms: _169  and  _170
REMARK   71  A    between atoms: _170  and  _171
REMARK   72  A    between atoms: _171  and  _172
REMARK   73  A    between atoms: _176  and  _178
REMARK   74  A    between atoms: _178  and  _179
REMARK   75  A    between atoms: _178  and  _181
REMARK   76  A    between atoms: _181  and  _182
REMARK   77  A    between atoms: _187  and  _188
REMARK   78  A    between atoms: _191  and  _192
REMARK   79  A    between atoms: _197  and  _199
REMARK   80  A    between atoms: _199  and  _200
REMARK   81  A    between atoms: _199  and  _202
REMARK   82  A    between atoms: _202  and  _203
REMARK   83  A    between atoms: _206  and  _208
REMARK   84  A    between atoms: _208  and  _209
REMARK   85  A    between atoms: _211  and  _213
REMARK   86  A    between atoms: _213  and  _214
REMARK   87  A    between atoms: _213  and  _216
REMARK   88  A    between atoms: _219  and  _221
REMARK   89  A    between atoms: _221  and  _222
REMARK   90  A    between atoms: _221  and  _224
REMARK   91  A    between atoms: _224  and  _225
REMARK   92  A    between atoms: _227  and  _229
REMARK   93  A    between atoms: _229  and  _230
REMARK   94  A    between atoms: _229  and  _232
REMARK   95  A    between atoms: _232  and  _233
REMARK   96  A    between atoms: _233  and  _234
REMARK   97  A    between atoms: _234  and  _235
REMARK   98  A    between atoms: _244  and  _246
REMARK   99  A    between atoms: _246  and  _247
REMARK  100  A    between atoms: _246  and  _249
REMARK  101  A    between atoms: _249  and  _250
REMARK  102  A    between atoms: _255  and  _257
REMARK  103  A    between atoms: _257  and  _258
REMARK  104  A    between atoms: _257  and  _260
REMARK  105  A    between atoms: _260  and  _261
REMARK  106  A    between atoms: _261  and  _262
REMARK  107  A    between atoms: _262  and  _263
REMARK  108  A    between atoms: _272  and  _274
REMARK  109  A    between atoms: _274  and  _275
REMARK  110  A    between atoms: _274  and  _277
REMARK  111  A    between atoms: _277  and  _278
REMARK  112  A    between atoms: _282  and  _283
REMARK  113  A    between atoms: _288  and  _290
REMARK  114  A    between atoms: _290  and  _291
REMARK  115  A    between atoms: _290  and  _293
REMARK  116  A    between atoms: _293  and  _294
REMARK  117  A    between atoms: _294  and  _295
REMARK  118  A    between atoms: _298  and  _300
REMARK  119  A    between atoms: _300  and  _301
REMARK  120  A    between atoms: _300  and  _303
REMARK  121  A    between atoms: _303  and  _304
REMARK  122  A    between atoms: _304  and  _305
REMARK  123  A    between atoms: _308  and  _310
REMARK  124  A    between atoms: _310  and  _311
REMARK  125  A    between atoms: _310  and  _313
REMARK  126  A    between atoms: _313  and  _314
REMARK  127  A    between atoms: _319  and  _321
REMARK  128  A    between atoms: _321  and  _322
REMARK  129  A    between atoms: _321  and  _324
REMARK  130  A    between atoms: _324  and  _325
REMARK  131  A    between atoms: _328  and  _330
REMARK  132  A    between atoms: _330  and  _331
REMARK  133  A    between atoms: _330  and  _333
REMARK  134  A    between atoms: _333  and  _334
REMARK  135  A    between atoms: _344  and  _346
REMARK  136  A    between atoms: _346  and  _347
REMARK  137  A    between atoms: _346  and  _349
REMARK  138  A    between atoms: _349  and  _350
REMARK  139  A    between atoms: _350  and  _351
REMARK  140  A    between atoms: _353  and  _355
REMARK  141  A    between atoms: _355  and  _356
REMARK  142  A    between atoms: _355  and  _358
REMARK  143  A    between atoms: _358  and  _359
REMARK  144  A    between atoms: _359  and  _360
REMARK  145  A    between atoms: _360  and  _361
REMARK  146  A    between atoms: _361  and  _362
REMARK  147  A    between atoms: _366  and  _368
REMARK  148  A    between atoms: _368  and  _369
REMARK  149  A    between atoms: _372  and  _374
REMARK  150  A    between atoms: _374  and  _375
REMARK  151  A    between atoms: _374  and  _377
REMARK  152  A    between atoms: _377  and  _378
REMARK  153  A    between atoms: _378  and  _379
REMARK  154  A    between atoms: _379  and  _380
REMARK  155  A    between atoms: _389  and  _391
REMARK  156  A    between atoms: _391  and  _392
REMARK  157  A    between atoms: _391  and  _394
REMARK  158  A    between atoms: _394  and  _395
REMARK  159  A    between atoms: _398  and  _400
REMARK  160  A    between atoms: _400  and  _401
REMARK  161  A    between atoms: _400  and  _403
REMARK  162  A    between atoms: _403  and  _404
REMARK  163  A    between atoms: _414  and  _416
REMARK  164  A    between atoms: _416  and  _417
REMARK  165  A    between atoms: _416  and  _419
REMARK  166  A    between atoms: _419  and  _420
REMARK  167  A    between atoms: _426  and  _428
REMARK  168  A    between atoms: _428  and  _429
REMARK  169  A    between atoms: _432  and  _434
REMARK  170  A    between atoms: _434  and  _435
REMARK  171  A    between atoms: _434  and  _437
REMARK  172  A    between atoms: _437  and  _438
REMARK  173  A    between atoms: _440  and  _442
REMARK  174  A    between atoms: _442  and  _443
REMARK  175  A    between atoms: _442  and  _445
REMARK  176  A    between atoms: _445  and  _446
REMARK  177  A    between atoms: _449  and  _451
REMARK  178  A    between atoms: _451  and  _452
REMARK  179  A    between atoms: _455  and  _457
REMARK  180  A    between atoms: _457  and  _458
REMARK  181  A    between atoms: _457  and  _460
REMARK  182  A    between atoms: _460  and  _461
REMARK  183  A    between atoms: _464  and  _466
REMARK  184  A    between atoms: _466  and  _467
REMARK  185  A    between atoms: _466  and  _469
REMARK  186  A    between atoms: _469  and  _470
REMARK  187  A    between atoms: _473  and  _475
REMARK  188  A    between atoms: _475  and  _476
REMARK  189  A    between atoms: _475  and  _478
REMARK  190  A    between atoms: _478  and  _479
REMARK  191  A    between atoms: _479  and  _480
REMARK  192  A    between atoms: _480  and  _481
REMARK  193  A    between atoms: _490  and  _492
REMARK  194  A    between atoms: _492  and  _493
REMARK  195  A    between atoms: _492  and  _495
REMARK  196  A    between atoms: _495  and  _496
REMARK  197  A    between atoms: _496  and  _497
REMARK  198  A    between atoms: _502  and  _504
REMARK  199  A    between atoms: _504  and  _505
REMARK  200  A    between atoms: _504  and  _507
REMARK  201  A    between atoms: _507  and  _508
REMARK  202  A    between atoms: _508  and  _509
REMARK  203  A    between atoms: _509  and  _510
REMARK  204  A    between atoms: _520  and  _521
REMARK  205  A    between atoms: _526  and  _528
REMARK  206  A    between atoms: _528  and  _529
REMARK  207  A    between atoms: _528  and  _531
REMARK  208  A    between atoms: _531  and  _532
REMARK  209  A    between atoms: _535  and  _537
REMARK  210  A    between atoms: _537  and  _538
REMARK  211  A    between atoms: _537  and  _540
REMARK  212  A    between atoms: _540  and  _541
REMARK  213  A    between atoms: _547  and  _548
REMARK  214  A    between atoms: _553  and  _555
REMARK  215  A    between atoms: _555  and  _556
REMARK  216  A    between atoms: _555  and  _558
REMARK  217  A    between atoms: _561  and  _563
REMARK  218  A    between atoms: _563  and  _564
REMARK  219  A    between atoms: _563  and  _566
REMARK  220  A    between atoms: _566  and  _567
REMARK  221  A    between atoms: _572  and  _574
REMARK  222  A    between atoms: _574  and  _575
REMARK  223  A    between atoms: _574  and  _577
REMARK  224  A    between atoms: _577  and  _578
REMARK  225  A    between atoms: _583  and  _585
REMARK  226  A    between atoms: _585  and  _586
REMARK  227  A    between atoms: _585  and  _588
REMARK  228  A    between atoms: _588  and  _589
REMARK  229  A    between atoms: _589  and  _590
REMARK  230  A    between atoms: _592  and  _594
REMARK  231  A    between atoms: _594  and  _595
REMARK  232  A    between atoms: _594  and  _597
REMARK  233  A    between atoms: _597  and  _598
REMARK  234  A    between atoms: _603  and  _604
REMARK  235  A    between atoms: _606  and  _608
REMARK  236  A    between atoms: _608  and  _609
REMARK  237  A    between atoms: _608  and  _611
REMARK  238  A    between atoms: _611  and  _612
REMARK  239  A    between atoms: _612  and  _613
REMARK  240  A    between atoms: _618  and  _620
REMARK  241  A    between atoms: _620  and  _621
REMARK  242  A    between atoms: _620  and  _623
REMARK  243  A    between atoms: _623  and  _624
REMARK  244  A    between atoms: _628  and  _629
REMARK  245  A    between atoms: _634  and  _636
REMARK  246  A    between atoms: _636  and  _637
REMARK  247  A    between atoms: _636  and  _639
REMARK  248  A    between atoms: _639  and  _640
REMARK  249  A    between atoms: _646  and  _648
REMARK  250  A    between atoms: _648  and  _649
REMARK  251  A    between atoms: _648  and  _651
REMARK  252  A    between atoms: _651  and  _652
REMARK  253  A    between atoms: _652  and  _653
REMARK  254  A    between atoms: _658  and  _660
REMARK  255  A    between atoms: _660  and  _661
REMARK  256  A    between atoms: _660  and  _663
REMARK  257  A    between atoms: _663  and  _664
REMARK  258  A    between atoms: _667  and  _669
REMARK  259  A    between atoms: _669  and  _670
REMARK  260  A    between atoms: _669  and  _672
REMARK  261  A    between atoms: _672  and  _673
REMARK  262  A    between atoms: _678  and  _679
REMARK  263  A    between atoms: _681  and  _683
REMARK  264  A    between atoms: _683  and  _684
REMARK  265  A    between atoms: _683  and  _686
REMARK  266  A    between atoms: _686  and  _687
REMARK  267  A    between atoms: _692  and  _693
REMARK  268  A    between atoms: _695  and  _697
REMARK  269  A    between atoms: _697  and  _698
REMARK  270  A    between atoms: _697  and  _700
REMARK  271  A    between atoms: _700  and  _701
REMARK  272  A    between atoms: _701  and  _702
REMARK  273  A    between atoms: _705  and  _707
REMARK  274  A    between atoms: _707  and  _708
REMARK  275  A    between atoms: _707  and  _710
REMARK  276  A    between atoms: _710  and  _711
REMARK  277  A    between atoms: _711  and  _712
REMARK  278  A    between atoms: _712  and  _713
REMARK  279  A    between atoms: _722  and  _724
REMARK  280  A    between atoms: _724  and  _725
REMARK  281  A    between atoms: _724  and  _727
REMARK  282  A    between atoms: _727  and  _728
REMARK  283  A    between atoms: _738  and  _740
REMARK  284  A    between atoms: _740  and  _741
REMARK  285  A    between atoms: _740  and  _743
REMARK  286  A    between atoms: _743  and  _744
REMARK  287  A    between atoms: _747  and  _749
REMARK  288  A    between atoms: _749  and  _750
REMARK  289  A    between atoms: _753  and  _755
REMARK  290  A    between atoms: _755  and  _756
REMARK  291  A    between atoms: _755  and  _758
REMARK  292  A    between atoms: _758  and  _759
REMARK  293  A    between atoms: _762  and  _764
REMARK  294  A    between atoms: _764  and  _765
REMARK  295  A    between atoms: _764  and  _767
REMARK  296  A    between atoms: _767  and  _768
REMARK  297  A    between atoms: _768  and  _769
REMARK  298  A    between atoms: _769  and  _770
REMARK  299  A    between atoms: _770  and  _771
REMARK  300  A    between atoms: _775  and  _777
REMARK  301  A    between atoms: _777  and  _778
REMARK  302  A    between atoms: _777  and  _780
REMARK  303  A    between atoms: _780  and  _781
REMARK                            x       y       z     vdW  Elec       q    Type
REMARK                         _______ _______ _______ _____ _____    ______ ____
ROOT
ATOM      1  C   GLN A   1      -7.020  -3.281  -9.576  0.00  0.00    +0.238 C 
ATOM      2  O   GLN A   1      -8.201  -3.534  -9.320  0.00  0.00    -0.274 OA
ATOM      3  N   ILE A   2      -6.657  -2.500 -10.586  0.00  0.00    -0.297 N 
ATOM      4  H   ILE A   2      -5.648  -2.297 -10.737  0.00  0.00    +0.150 HD
ENDROOT
BRANCH   1   5
ATOM      5  CA  GLN A   1      -5.889  -3.848  -8.717  0.00  0.00    +0.145 C 
BRANCH   5   6
ATOM      6  N   GLN A   1      -4.783  -2.893  -8.587  0.00  0.00    -0.238 NA
ATOM      7  H   GLN A   1      -3.823  -3.187  -8.859  0.00  0.00    +0.142 HD
ENDBRANCH   5   6
BRANCH   5   8
ATOM      8  CB  GLN A   1      -6.447  -4.229  -7.342  0.00  0.00    +0.036 C 
BRANCH   8   9
ATOM      9  CG  GLN A   1      -5.463  -4.958  -6.432  0.00  0.00    +0.087 C 
BRANCH   9  10
ATOM     10  CD  GLN A   1      -4.945  -6.255  -7.036  0.00  0.00    +0.219 C 
ATOM     11  NE2 GLN A   1      -3.668  -6.540  -6.814  0.00  0.00    -0.329 N 
ATOM     12 HE21 GLN A   1      -3.076  -5.883  -6.266  0.00  0.00    +0.145 HD
ATOM     13 HE22 GLN A   1      -3.259  -7.420  -7.188  0.00  0.00    +0.145 HD
ATOM     14  OE1 GLN A   1      -5.690  -6.999  -7.679  0.00  0.00    -0.275 OA
ENDBRANCH   9  10
ENDBRANCH   8   9
ENDBRANCH   5   8
ENDBRANCH   1   5
BRANCH   3  15
ATOM     15  CA  ILE A   2      -7.644  -1.922 -11.486  0.00  0.00    +0.149 C 
BRANCH  15  16
ATOM     16  C   ILE A   2      -7.622  -2.745 -12.768  0.00  0.00    +0.244 C 
ATOM     17  O   ILE A   2      -6.572  -3.249 -13.174  0.00  0.00    -0.273 OA
ATOM     18  N   PRO A   3      -8.786  -2.885 -13.423  0.00  0.00    -0.273 N 
ATOM     19  CD  PRO A   3     -10.025  -2.174 -13.059  0.00  0.00    +0.094 C 
ATOM     20  CG  PRO A   3     -10.815  -2.218 -14.348  0.00  0.00    +0.024 C 
ATOM     21  CB  PRO A   3     -10.493  -3.583 -14.854  0.00  0.00    +0.030 C 
ATOM     22  CA  PRO A   3      -8.981  -3.645 -14.660  0.00  0.00    +0.140 C 
BRANCH  22  23
ATOM     23  C   PRO A   3      -8.220  -3.236 -15.918  0.00  0.00    +0.227 C 
ATOM     24  O   PRO A   3      -8.812  -3.135 -16.990  0.00  0.00    -0.286 OA
ENDBRANCH  22  23
ENDBRANCH  15  16
BRANCH  15  25
ATOM     25  CB  ILE A   2      -7.349  -0.432 -11.785  0.00  0.00    +0.027 C 
ATOM     26  CG2 ILE A   2      -7.563   0.391 -10.519  0.00  0.00    +0.002 C 
BRANCH  25  27
ATOM     27  CG1 ILE A   2      -5.917  -0.257 -12.300  0.00  0.00    +0.002 C 
ATOM     28  CD1 ILE A   2      -5.608   1.164 -12.790  0.00  0.00    +0.000 C 
ENDBRANCH  25  27
ENDBRANCH  15  25
ENDBRANCH   3  15
TORSDOF 10
REMARK  Name = ../refined-set-2016/1y3p/1y3p_pocket.pdb
REMARK  303 active torsions:
REMARK  status: ('A' for Active; 'I' for Inactive)
REMARK    1  A    between atoms: _1  and  _3
REMARK    2  A    between atoms: _3  and  _4
REMARK    3  A    between atoms: _3  and  _6
REMARK    4  A    between atoms: _6  and  _7
REMARK    5  A    between atoms: _12  and  _14
REMARK    6  A    between atoms: _14  and  _15
REMARK    7  A    between atoms: _14  and  _17
REMARK    8  A    between atoms: _17  and  _18
REMARK    9  A    between atoms: _24  and  _26
REMARK   10  A    between atoms: _26  and  _27
REMARK   11  A    between atoms: _26  and  _29
REMARK   12  A    between atoms: _29  and  _30
REMARK   13  A    between atoms: _30  and  _31
REMARK   14  A    between atoms: _31  and  _32
REMARK   15  A    between atoms: _41  and  _43
REMARK   16  A    between atoms: _43  and  _44
REMARK   17  A    between atoms: _43  and  _46
REMARK   18  A    between atoms: _46  and  _47
REMARK   19  A    between atoms: _50  and  _52
REMARK   20  A    between atoms: _52  and  _53
REMARK   21  A    between atoms: _52  and  _55
REMARK   22  A    between atoms: _55  and  _56
REMARK   23  A    between atoms: _56  and  _57
REMARK   24  A    between atoms: _57  and  _58
REMARK   25  A    between atoms: _58  and  _59
REMARK   26  A    between atoms: _63  and  _65
REMARK   27  A    between atoms: _65  and  _66
REMARK   28  A    between atoms: _65  and  _68
REMARK   29  A    between atoms: _68  and  _69
REMARK   30  A    between atoms: _79  and  _81
REMARK   31  A    between atoms: _81  and  _82
REMARK   32  A    between atoms: _81  and  _84
REMARK   33  A    between atoms: _84  and  _85
REMARK   34  A    between atoms: _88  and  _90
REMARK   35  A    between atoms: _90  and  _91
REMARK   36  A    between atoms: _90  and  _93
REMARK   37  A    between atoms: _93  and  _94
REMARK   38  A    between atoms: _99  and  _101
REMARK   39  A    between atoms: _101  and  _102
REMARK   40  A    between atoms: _101  and  _104
REMARK   41  A    between atoms: _104  and  _105
REMARK   42  A    between atoms: _107  and  _109
REMARK   43  A    between atoms: _109  and  _110
REMARK   44  A    between atoms: _109  and  _112
REMARK   45  A    between atoms: _112  and  _113
REMARK   46  A    between atoms: _113  and  _114
REMARK   47  A    between atoms: _119  and  _121
REMARK   48  A    between atoms: _121  and  _122
REMARK   49  A    between atoms: _121  and  _124
REMARK   50  A    between atoms: _124  and  _125
REMARK   51  A    between atoms: _125  and  _126
REMARK   52  A    between atoms: _129  and  _131
REMARK   53  A    between atoms: _131  and  _132
REMARK   54  A    between atoms: _134  and  _136
REMARK   55  A    between atoms: _136  and  _137
REMARK   56  A    between atoms: _136  and  _139
REMARK   57  A    between atoms: _139  and  _140
REMARK   58  A    between atoms: _143  and  _145
REMARK   59  A    between atoms: _145  and  _146
REMARK   60  A    between atoms: _145  and  _148
REMARK   61  A    between atoms: _148  and  _149
REMARK   62  A    between atoms: _154  and  _156
REMARK   63  A    between atoms: _156  and  _157
REMARK   64  A    between atoms: _156  and  _159
REMARK   65  A    between atoms: _159  and  _160
REMARK   66  A    between atoms: _163  and  _165
REMARK   67  A    between atoms: _165  and  _166
REMARK   68  A    between atoms: _165  and  _168
REMARK   69  A    between atoms: _168  and  _169
REMARK   70  A    between atoms: _169  and  _170
REMARK   71  A    between atoms: _170  and  _171
REMARK   72  A    between atoms: _171  and  _172
REMARK   73  A    between atoms: _176  and  _178
REMARK   74  A    between atoms: _178  and  _179
REMARK   75  A    between atoms: _178  and  _181
REMARK   76  A    between atoms: _181  and  _182
REMARK   77  A    between atoms: _187  and  _188
REMARK   78  A    between atoms: _191  and  _192
REMARK   79  A    between atoms: _197  and  _199
REMARK   80  A    between atoms: _199  and  _200
REMARK   81  A    between atoms: _199  and  _202
REMARK   82  A    between atoms: _202  and  _203
REMARK   83  A    between atoms: _206  and  _208
REMARK   84  A    between atoms: _208  and  _209
REMARK   85  A    between atoms: _211  and  _213
REMARK   86  A    between atoms: _213  and  _214
REMARK   87  A    between atoms: _213  and  _216
REMARK   88  A    between atoms: _219  and  _221
REMARK   89  A    between atoms: _221  and  _222
REMARK   90  A    between atoms: _221  and  _224
REMARK   91  A    between atoms: _224  and  _225
REMARK   92  A    between atoms: _227  and  _229
REMARK   93  A    between atoms: _229  and  _230
REMARK   94  A    between atoms: _229  and  _232
REMARK   95  A    between atoms: _232  and  _233
REMARK   96  A    between atoms: _233  and  _234
REMARK   97  A    between atoms: _234  and  _235
REMARK   98  A    between atoms: _244  and  _246
REMARK   99  A    between atoms: _246  and  _247
REMARK  100  A    between atoms: _246  and  _249
REMARK  101  A    between atoms: _249  and  _250
REMARK  102  A    between atoms: _255  and  _257
REMARK  103  A    between atoms: _257  and  _258
REMARK  104  A    between atoms: _257  and  _260
REMARK  105  A    between atoms: _260  and  _261
REMARK  106  A    between atoms: _261  and  _262
REMARK  107  A    between atoms: _262  and  _263
REMARK  108  A    between atoms: _272  and  _274
REMARK  109  A    between atoms: _274  and  _275
REMARK  110  A    between atoms: _274  and  _277
REMARK  111  A    between atoms: _277  and  _278
REMARK  112  A    between atoms: _282  and  _283
REMARK  113  A    between atoms: _288  and  _290
REMARK  114  A    between atoms: _290  and  _291
REMARK  115  A    between atoms: _290  and  _293
REMARK  116  A    between atoms: _293  and  _294
REMARK  117  A    between atoms: _294  and  _295
REMARK  118  A    between atoms: _298  and  _300
REMARK  119  A    between atoms: _300  and  _301
REMARK  120  A    between atoms: _300  and  _303
REMARK  121  A    between atoms: _303  and  _304
REMARK  122  A    between atoms: _304  and  _305
REMARK  123  A    between atoms: _308  and  _310
REMARK  124  A    between atoms: _310  and  _311
REMARK  125  A    between atoms: _310  and  _313
REMARK  126  A    between atoms: _313  and  _314
REMARK  127  A    between atoms: _319  and  _321
REMARK  128  A    between atoms: _321  and  _322
REMARK  129  A    between atoms: _321  and  _324
REMARK  130  A    between atoms: _324  and  _325
REMARK  131  A    between atoms: _328  and  _330
REMARK  132  A    between atoms: _330  and  _331
REMARK  133  A    between atoms: _330  and  _333
REMARK  134  A    between atoms: _333  and  _334
REMARK  135  A    between atoms: _344  and  _346
REMARK  136  A    between atoms: _346  and  _347
REMARK  137  A    between atoms: _346  and  _349
REMARK  138  A    between atoms: _349  and  _350
REMARK  139  A    between atoms: _350  and  _351
REMARK  140  A    between atoms: _353  and  _355
REMARK  141  A    between atoms: _355  and  _356
REMARK  142  A    between atoms: _355  and  _358
REMARK  143  A    between atoms: _358  and  _359
REMARK  144  A    between atoms: _359  and  _360
REMARK  145  A    between atoms: _360  and  _361
REMARK  146  A    between atoms: _361  and  _362
REMARK  147  A    between atoms: _366  and  _368
REMARK  148  A    between atoms: _368  and  _369
REMARK  149  A    between atoms: _372  and  _374
REMARK  150  A    between atoms: _374  and  _375
REMARK  151  A    between atoms: _374  and  _377
REMARK  152  A    between atoms: _377  and  _378
REMARK  153  A    between atoms: _378  and  _379
REMARK  154  A    between atoms: _379  and  _380
REMARK  155  A    between atoms: _389  and  _391
REMARK  156  A    between atoms: _391  and  _392
REMARK  157  A    between atoms: _391  and  _394
REMARK  158  A    between atoms: _394  and  _395
REMARK  159  A    between atoms: _398  and  _400
REMARK  160  A    between atoms: _400  and  _401
REMARK  161  A    between atoms: _400  and  _403
REMARK  162  A    between atoms: _403  and  _404
REMARK  163  A    between atoms: _414  and  _416
REMARK  164  A    between atoms: _416  and  _417
REMARK  165  A    between atoms: _416  and  _419
REMARK  166  A    between atoms: _419  and  _420
REMARK  167  A    between atoms: _426  and  _428
REMARK  168  A    between atoms: _428  and  _429
REMARK  169  A    between atoms: _432  and  _434
REMARK  170  A    between atoms: _434  and  _435
REMARK  171  A    between atoms: _434  and  _437
REMARK  172  A    between atoms: _437  and  _438
REMARK  173  A    between atoms: _440  and  _442
REMARK  174  A    between atoms: _442  and  _443
REMARK  175  A    between atoms: _442  and  _445
REMARK  176  A    between atoms: _445  and  _446
REMARK  177  A    between atoms: _449  and  _451
REMARK  178  A    between atoms: _451  and  _452
REMARK  179  A    between atoms: _455  and  _457
REMARK  180  A    between atoms: _457  and  _458
REMARK  181  A    between atoms: _457  and  _460
REMARK  182  A    between atoms: _460  and  _461
REMARK  183  A    between atoms: _464  and  _466
REMARK  184  A    between atoms: _466  and  _467
REMARK  185  A    between atoms: _466  and  _469
REMARK  186  A    between atoms: _469  and  _470
REMARK  187  A    between atoms: _473  and  _475
REMARK  188  A    between atoms: _475  and  _476
REMARK  189  A    between atoms: _475  and  _478
REMARK  190  A    between atoms: _478  and  _479
REMARK  191  A    between atoms: _479  and  _480
REMARK  192  A    between atoms: _480  and  _481
REMARK  193  A    between atoms: _490  and  _492
REMARK  194  A    between atoms: _492  and  _493
REMARK  195  A    between atoms: _492  and  _495
REMARK  196  A    between atoms: _495  and  _496
REMARK  197  A    between atoms: _496  and  _497
REMARK  198  A    between atoms: _502  and  _504
REMARK  199  A    between atoms: _504  and  _505
REMARK  200  A    between atoms: _504  and  _507
REMARK  201  A    between atoms: _507  and  _508
REMARK  202  A    between atoms: _508  and  _509
REMARK  203  A    between atoms: _509  and  _510
REMARK  204  A    between atoms: _520  and  _521
REMARK  205  A    between atoms: _526  and  _528
REMARK  206  A    between atoms: _528  and  _529
REMARK  207  A    between atoms: _528  and  _531
REMARK  208  A    between atoms: _531  and  _532
REMARK  209  A    between atoms: _535  and  _537
REMARK  210  A    between atoms: _537  and  _538
REMARK  211  A    between atoms: _537  and  _540
REMARK  212  A    between atoms: _540  and  _541
REMARK  213  A    between atoms: _547  and  _548
REMARK  214  A    between atoms: _553  and  _555
REMARK  215  A    between atoms: _555  and  _556
REMARK  216  A    between atoms: _555  and  _558
REMARK  217  A    between atoms: _561  and  _563
REMARK  218  A    between atoms: _563  and  _564
REMARK  219  A    between atoms: _563  and  _566
REMARK  220  A    between atoms: _566  and  _567
REMARK  221  A    between atoms: _572  and  _574
REMARK  222  A    between atoms: _574  and  _575
REMARK  223  A    between atoms: _574  and  _577
REMARK  224  A    between atoms: _577  and  _578
REMARK  225  A    between atoms: _583  and  _585
REMARK  226  A    between atoms: _585  and  _586
REMARK  227  A    between atoms: _585  and  _588
REMARK  228  A    between atoms: _588  and  _589
REMARK  229  A    between atoms: _589  and  _590
REMARK  230  A    between atoms: _592  and  _594
REMARK  231  A    between atoms: _594  and  _595
REMARK  232  A    between atoms: _594  and  _597
REMARK  233  A    between atoms: _597  and  _598
REMARK  234  A    between atoms: _603  and  _604
REMARK  235  A    between atoms: _606  and  _608
REMARK  236  A    between atoms: _608  and  _609
REMARK  237  A    between atoms: _608  and  _611
REMARK  238  A    between atoms: _611  and  _612
REMARK  239  A    between atoms: _612  and  _613
REMARK  240  A    between atoms: _618  and  _620
REMARK  241  A    between atoms: _620  and  _621
REMARK  242  A    between atoms: _620  and  _623
REMARK  243  A    between atoms: _623  and  _624
REMARK  244  A    between atoms: _628  and  _629
REMARK  245  A    between atoms: _634  and  _636
REMARK  246  A    between atoms: _636  and  _637
REMARK  247  A    between atoms: _636  and  _639
REMARK  248  A    between atoms: _639  and  _640
REMARK  249  A    between atoms: _646  and  _648
REMARK  250  A    between atoms: _648  and  _649
REMARK  251  A    between atoms: _648  and  _651
REMARK  252  A    between atoms: _651  and  _652
REMARK  253  A    between atoms: _652  and  _653
REMARK  254  A    between atoms: _658  and  _660
REMARK  255  A    between atoms: _660  and  _661
REMARK  256  A    between atoms: _660  and  _663
REMARK  257  A    between atoms: _663  and  _664
REMARK  258  A    between atoms: _667  and  _669
REMARK  259  A    between atoms: _669  and  _670
REMARK  260  A    between atoms: _669  and  _672
REMARK  261  A    between atoms: _672  and  _673
REMARK  262  A    between atoms: _678  and  _679
REMARK  263  A    between atoms: _681  and  _683
REMARK  264  A    between atoms: _683  and  _684
REMARK  265  A    between atoms: _683  and  _686
REMARK  266  A    between atoms: _686  and  _687
REMARK  267  A    between atoms: _692  and  _693
REMARK  268  A    between atoms: _695  and  _697
REMARK  269  A    between atoms: _697  and  _698
REMARK  270  A    between atoms: _697  and  _700
REMARK  271  A    between atoms: _700  and  _701
REMARK  272  A    between atoms: _701  and  _702
REMARK  273  A    between atoms: _705  and  _707
REMARK  274  A    between atoms: _707  and  _708
REMARK  275  A    between atoms: _707  and  _710
REMARK  276  A    between atoms: _710  and  _711
REMARK  277  A    between atoms: _711  and  _712
REMARK  278  A    between atoms: _712  and  _713
REMARK  279  A    between atoms: _722  and  _724
REMARK  280  A    between atoms: _724  and  _725
REMARK  281  A    between atoms: _724  and  _727
REMARK  282  A    between atoms: _727  and  _728
REMARK  283  A    between atoms: _738  and  _740
REMARK  284  A    between atoms: _740  and  _741
REMARK  285  A    between atoms: _740  and  _743
REMARK  286  A    between atoms: _743  and  _744
REMARK  287  A    between atoms: _747  and  _749
REMARK  288  A    between atoms: _749  and  _750
REMARK  289  A    between atoms: _753  and  _755
REMARK  290  A    between atoms: _755  and  _756
REMARK  291  A    between atoms: _755  and  _758
REMARK  292  A    between atoms: _758  and  _759
REMARK  293  A    between atoms: _762  and  _764
REMARK  294  A    between atoms: _764  and  _765
REMARK  295  A    between atoms: _764  and  _767
REMARK  296  A    between atoms: _767  and  _768
REMARK  297  A    between atoms: _768  and  _769
REMARK  298  A    between atoms: _769  and  _770
REMARK  299  A    between atoms: _770  and  _771
REMARK  300  A    between atoms: _775  and  _777
REMARK  301  A    between atoms: _777  and  _778
REMARK  302  A    between atoms: _777  and  _780
REMARK  303  A    between atoms: _780  and  _781
REMARK                            x       y       z     vdW  Elec       q    Type
REMARK                         _______ _______ _______ _____ _____    ______ ____
ROOT
ATOM      1  CB  PHE A   1      -2.073  -5.675 -14.634  0.00  0.00    +0.051 C 
ENDROOT
BRANCH   1   2
ATOM      2  CG  PHE A   1      -3.045  -5.996 -13.521  0.00  0.00    -0.020 A 
ATOM      3  CD2 PHE A   1      -2.576  -6.401 -12.273  0.00  0.00    -0.004 A 
ATOM      4  CE2 PHE A   1      -3.455  -6.669 -11.224  0.00  0.00    -0.000 A 
ATOM      5  CZ  PHE A   1      -4.828  -6.533 -11.417  0.00  0.00    -0.000 A 
ATOM      6  CE1 PHE A   1      -5.310  -6.131 -12.660  0.00  0.00    -0.000 A 
ATOM      7  CD1 PHE A   1      -4.416  -5.865 -13.707  0.00  0.00    -0.004 A 
ENDBRANCH   1   2
BRANCH   1   8
ATOM      8  CA  PHE A   1      -2.073  -6.689 -15.799  0.00  0.00    +0.137 C 
BRANCH   8   9
ATOM      9  N   PHE A   1      -3.081  -6.344 -16.794  0.00  0.00    -0.239 NA
ATOM     10  H   PHE A   1      -4.019  -6.792 -16.753  0.00  0.00    +0.142 HD
ENDBRANCH   8   9
BRANCH   8  11
ATOM     11  C   PHE A   1      -2.240  -8.107 -15.266  0.00  0.00    +0.224 C 
ATOM     12  O   PHE A   1      -3.289  -8.734 -15.438  0.00  0.00    -0.287 OA
ENDBRANCH   8  11
ENDBRANCH   1   8
TORSDOF 4
REMARK  Name = ../refined-set-2016/1y3p/1y3p_pocket.pdb
REMARK  303 active torsions:
REMARK  status: ('A' for Active; 'I' for Inactive)
REMARK    1  A    between atoms: _1  and  _3
REMARK    2  A    between atoms: _3  and  _4
REMARK    3  A    between atoms: _3  and  _6
REMARK    4  A    between atoms: _6  and  _7
REMARK    5  A    between atoms: _12  and  _14
REMARK    6  A    between atoms: _14  and  _15
REMARK    7  A    between atoms: _14  and  _17
REMARK    8  A    between atoms: _17  and  _18
REMARK    9  A    between atoms: _24  and  _26
REMARK   10  A    between atoms: _26  and  _27
REMARK   11  A    between atoms: _26  and  _29
REMARK   12  A    between atoms: _29  and  _30
REMARK   13  A    between atoms: _30  and  _31
REMARK   14  A    between atoms: _31  and  _32
REMARK   15  A    between atoms: _41  and  _43
REMARK   16  A    between atoms: _43  and  _44
REMARK   17  A    between atoms: _43  and  _46
REMARK   18  A    between atoms: _46  and  _47
REMARK   19  A    between atoms: _50  and  _52
REMARK   20  A    between atoms: _52  and  _53
REMARK   21  A    between atoms: _52  and  _55
REMARK   22  A    between atoms: _55  and  _56
REMARK   23  A    between atoms: _56  and  _57
REMARK   24  A    between atoms: _57  and  _58
REMARK   25  A    between atoms: _58  and  _59
REMARK   26  A    between atoms: _63  and  _65
REMARK   27  A    between atoms: _65  and  _66
REMARK   28  A    between atoms: _65  and  _68
REMARK   29  A    between atoms: _68  and  _69
REMARK   30  A    between atoms: _79  and  _81
REMARK   31  A    between atoms: _81  and  _82
REMARK   32  A    between atoms: _81  and  _84
REMARK   33  A    between atoms: _84  and  _85
REMARK   34  A    between atoms: _88  and  _90
REMARK   35  A    between atoms: _90  and  _91
REMARK   36  A    between atoms: _90  and  _93
REMARK   37  A    between atoms: _93  and  _94
REMARK   38  A    between atoms: _99  and  _101
REMARK   39  A    between atoms: _101  and  _102
REMARK   40  A    between atoms: _101  and  _104
REMARK   41  A    between atoms: _104  and  _105
REMARK   42  A    between atoms: _107  and  _109
REMARK   43  A    between atoms: _109  and  _110
REMARK   44  A    between atoms: _109  and  _112
REMARK   45  A    between atoms: _112  and  _113
REMARK   46  A    between atoms: _113  and  _114
REMARK   47  A    between atoms: _119  and  _121
REMARK   48  A    between atoms: _121  and  _122
REMARK   49  A    between atoms: _121  and  _124
REMARK   50  A    between atoms: _124  and  _125
REMARK   51  A    between atoms: _125  and  _126
REMARK   52  A    between atoms: _129  and  _131
REMARK   53  A    between atoms: _131  and  _132
REMARK   54  A    between atoms: _134  and  _136
REMARK   55  A    between atoms: _136  and  _137
REMARK   56  A    between atoms: _136  and  _139
REMARK   57  A    between atoms: _139  and  _140
REMARK   58  A    between atoms: _143  and  _145
REMARK   59  A    between atoms: _145  and  _146
REMARK   60  A    between atoms: _145  and  _148
REMARK   61  A    between atoms: _148  and  _149
REMARK   62  A    between atoms: _154  and  _156
REMARK   63  A    between atoms: _156  and  _157
REMARK   64  A    between atoms: _156  and  _159
REMARK   65  A    between atoms: _159  and  _160
REMARK   66  A    between atoms: _163  and  _165
REMARK   67  A    between atoms: _165  and  _166
REMARK   68  A    between atoms: _165  and  _168
REMARK   69  A    between atoms: _168  and  _169
REMARK   70  A    between atoms: _169  and  _170
REMARK   71  A    between atoms: _170  and  _171
REMARK   72  A    between atoms: _171  and  _172
REMARK   73  A    between atoms: _176  and  _178
REMARK   74  A    between atoms: _178  and  _179
REMARK   75  A    between atoms: _178  and  _181
REMARK   76  A    between atoms: _181  and  _182
REMARK   77  A    between atoms: _187  and  _188
REMARK   78  A    between atoms: _191  and  _192
REMARK   79  A    between atoms: _197  and  _199
REMARK   80  A    between atoms: _199  and  _200
REMARK   81  A    between atoms: _199  and  _202
REMARK   82  A    between atoms: _202  and  _203
REMARK   83  A    between atoms: _206  and  _208
REMARK   84  A    between atoms: _208  and  _209
REMARK   85  A    between atoms: _211  and  _213
REMARK   86  A    between atoms: _213  and  _214
REMARK   87  A    between atoms: _213  and  _216
REMARK   88  A    between atoms: _219  and  _221
REMARK   89  A    between atoms: _221  and  _222
REMARK   90  A    between atoms: _221  and  _224
REMARK   91  A    between atoms: _224  and  _225
REMARK   92  A    between atoms: _227  and  _229
REMARK   93  A    between atoms: _229  and  _230
REMARK   94  A    between atoms: _229  and  _232
REMARK   95  A    between atoms: _232  and  _233
REMARK   96  A    between atoms: _233  and  _234
REMARK   97  A    between atoms: _234  and  _235
REMARK   98  A    between atoms: _244  and  _246
REMARK   99  A    between atoms: _246  and  _247
REMARK  100  A    between atoms: _246  and  _249
REMARK  101  A    between atoms: _249  and  _250
REMARK  102  A    between atoms: _255  and  _257
REMARK  103  A    between atoms: _257  and  _258
REMARK  104  A    between atoms: _257  and  _260
REMARK  105  A    between atoms: _260  and  _261
REMARK  106  A    between atoms: _261  and  _262
REMARK  107  A    between atoms: _262  and  _263
REMARK  108  A    between atoms: _272  and  _274
REMARK  109  A    between atoms: _274  and  _275
REMARK  110  A    between atoms: _274  and  _277
REMARK  111  A    between atoms: _277  and  _278
REMARK  112  A    between atoms: _282  and  _283
REMARK  113  A    between atoms: _288  and  _290
REMARK  114  A    between atoms: _290  and  _291
REMARK  115  A    between atoms: _290  and  _293
REMARK  116  A    between atoms: _293  and  _294
REMARK  117  A    between atoms: _294  and  _295
REMARK  118  A    between atoms: _298  and  _300
REMARK  119  A    between atoms: _300  and  _301
REMARK  120  A    between atoms: _300  and  _303
REMARK  121  A    between atoms: _303  and  _304
REMARK  122  A    between atoms: _304  and  _305
REMARK  123  A    between atoms: _308  and  _310
REMARK  124  A    between atoms: _310  and  _311
REMARK  125  A    between atoms: _310  and  _313
REMARK  126  A    between atoms: _313  and  _314
REMARK  127  A    between atoms: _319  and  _321
REMARK  128  A    between atoms: _321  and  _322
REMARK  129  A    between atoms: _321  and  _324
REMARK  130  A    between atoms: _324  and  _325
REMARK  131  A    between atoms: _328  and  _330
REMARK  132  A    between atoms: _330  and  _331
REMARK  133  A    between atoms: _330  and  _333
REMARK  134  A    between atoms: _333  and  _334
REMARK  135  A    between atoms: _344  and  _346
REMARK  136  A    between atoms: _346  and  _347
REMARK  137  A    between atoms: _346  and  _349
REMARK  138  A    between atoms: _349  and  _350
REMARK  139  A    between atoms: _350  and  _351
REMARK  140  A    between atoms: _353  and  _355
REMARK  141  A    between atoms: _355  and  _356
REMARK  142  A    between atoms: _355  and  _358
REMARK  143  A    between atoms: _358  and  _359
REMARK  144  A    between atoms: _359  and  _360
REMARK  145  A    between atoms: _360  and  _361
REMARK  146  A    between atoms: _361  and  _362
REMARK  147  A    between atoms: _366  and  _368
REMARK  148  A    between atoms: _368  and  _369
REMARK  149  A    between atoms: _372  and  _374
REMARK  150  A    between atoms: _374  and  _375
REMARK  151  A    between atoms: _374  and  _377
REMARK  152  A    between atoms: _377  and  _378
REMARK  153  A    between atoms: _378  and  _379
REMARK  154  A    between atoms: _379  and  _380
REMARK  155  A    between atoms: _389  and  _391
REMARK  156  A    between atoms: _391  and  _392
REMARK  157  A    between atoms: _391  and  _394
REMARK  158  A    between atoms: _394  and  _395
REMARK  159  A    between atoms: _398  and  _400
REMARK  160  A    between atoms: _400  and  _401
REMARK  161  A    between atoms: _400  and  _403
REMARK  162  A    between atoms: _403  and  _404
REMARK  163  A    between atoms: _414  and  _416
REMARK  164  A    between atoms: _416  and  _417
REMARK  165  A    between atoms: _416  and  _419
REMARK  166  A    between atoms: _419  and  _420
REMARK  167  A    between atoms: _426  and  _428
REMARK  168  A    between atoms: _428  and  _429
REMARK  169  A    between atoms: _432  and  _434
REMARK  170  A    between atoms: _434  and  _435
REMARK  171  A    between atoms: _434  and  _437
REMARK  172  A    between atoms: _437  and  _438
REMARK  173  A    between atoms: _440  and  _442
REMARK  174  A    between atoms: _442  and  _443
REMARK  175  A    between atoms: _442  and  _445
REMARK  176  A    between atoms: _445  and  _446
REMARK  177  A    between atoms: _449  and  _451
REMARK  178  A    between atoms: _451  and  _452
REMARK  179  A    between atoms: _455  and  _457
REMARK  180  A    between atoms: _457  and  _458
REMARK  181  A    between atoms: _457  and  _460
REMARK  182  A    between atoms: _460  and  _461
REMARK  183  A    between atoms: _464  and  _466
REMARK  184  A    between atoms: _466  and  _467
REMARK  185  A    between atoms: _466  and  _469
REMARK  186  A    between atoms: _469  and  _470
REMARK  187  A    between atoms: _473  and  _475
REMARK  188  A    between atoms: _475  and  _476
REMARK  189  A    between atoms: _475  and  _478
REMARK  190  A    between atoms: _478  and  _479
REMARK  191  A    between atoms: _479  and  _480
REMARK  192  A    between atoms: _480  and  _481
REMARK  193  A    between atoms: _490  and  _492
REMARK  194  A    between atoms: _492  and  _493
REMARK  195  A    between atoms: _492  and  _495
REMARK  196  A    between atoms: _495  and  _496
REMARK  197  A    between atoms: _496  and  _497
REMARK  198  A    between atoms: _502  and  _504
REMARK  199  A    between atoms: _504  and  _505
REMARK  200  A    between atoms: _504  and  _507
REMARK  201  A    between atoms: _507  and  _508
REMARK  202  A    between atoms: _508  and  _509
REMARK  203  A    between atoms: _509  and  _510
REMARK  204  A    between atoms: _520  and  _521
REMARK  205  A    between atoms: _526  and  _528
REMARK  206  A    between atoms: _528  and  _529
REMARK  207  A    between atoms: _528  and  _531
REMARK  208  A    between atoms: _531  and  _532
REMARK  209  A    between atoms: _535  and  _537
REMARK  210  A    between atoms: _537  and  _538
REMARK  211  A    between atoms: _537  and  _540
REMARK  212  A    between atoms: _540  and  _541
REMARK  213  A    between atoms: _547  and  _548
REMARK  214  A    between atoms: _553  and  _555
REMARK  215  A    between atoms: _555  and  _556
REMARK  216  A    between atoms: _555  and  _558
REMARK  217  A    between atoms: _561  and  _563
REMARK  218  A    between atoms: _563  and  _564
REMARK  219  A    between atoms: _563  and  _566
REMARK  220  A    between atoms: _566  and  _567
REMARK  221  A    between atoms: _572  and  _574
REMARK  222  A    between atoms: _574  and  _575
REMARK  223  A    between atoms: _574  and  _577
REMARK  224  A    between atoms: _577  and  _578
REMARK  225  A    between atoms: _583  and  _585
REMARK  226  A    between atoms: _585  and  _586
REMARK  227  A    between atoms: _585  and  _588
REMARK  228  A    between atoms: _588  and  _589
REMARK  229  A    between atoms: _589  and  _590
REMARK  230  A    between atoms: _592  and  _594
REMARK  231  A    between atoms: _594  and  _595
REMARK  232  A    between atoms: _594  and  _597
REMARK  233  A    between atoms: _597  and  _598
REMARK  234  A    between atoms: _603  and  _604
REMARK  235  A    between atoms: _606  and  _608
REMARK  236  A    between atoms: _608  and  _609
REMARK  237  A    between atoms: _608  and  _611
REMARK  238  A    between atoms: _611  and  _612
REMARK  239  A    between atoms: _612  and  _613
REMARK  240  A    between atoms: _618  and  _620
REMARK  241  A    between atoms: _620  and  _621
REMARK  242  A    between atoms: _620  and  _623
REMARK  243  A    between atoms: _623  and  _624
REMARK  244  A    between atoms: _628  and  _629
REMARK  245  A    between atoms: _634  and  _636
REMARK  246  A    between atoms: _636  and  _637
REMARK  247  A    between atoms: _636  and  _639
REMARK  248  A    between atoms: _639  and  _640
REMARK  249  A    between atoms: _646  and  _648
REMARK  250  A    between atoms: _648  and  _649
REMARK  251  A    between atoms: _648  and  _651
REMARK  252  A    between atoms: _651  and  _652
REMARK  253  A    between atoms: _652  and  _653
REMARK  254  A    between atoms: _658  and  _660
REMARK  255  A    between atoms: _660  and  _661
REMARK  256  A    between atoms: _660  and  _663
REMARK  257  A    between atoms: _663  and  _664
REMARK  258  A    between atoms: _667  and  _669
REMARK  259  A    between atoms: _669  and  _670
REMARK  260  A    between atoms: _669  and  _672
REMARK  261  A    between atoms: _672  and  _673
REMARK  262  A    between atoms: _678  and  _679
REMARK  263  A    between atoms: _681  and  _683
REMARK  264  A    between atoms: _683  and  _684
REMARK  265  A    between atoms: _683  and  _686
REMARK  266  A    between atoms: _686  and  _687
REMARK  267  A    between atoms: _692  and  _693
REMARK  268  A    between atoms: _695  and  _697
REMARK  269  A    between atoms: _697  and  _698
REMARK  270  A    between atoms: _697  and  _700
REMARK  271  A    between atoms: _700  and  _701
REMARK  272  A    between atoms: _701  and  _702
REMARK  273  A    between atoms: _705  and  _707
REMARK  274  A    between atoms: _707  and  _708
REMARK  275  A    between atoms: _707  and  _710
REMARK  276  A    between atoms: _710  and  _711
REMARK  277  A    between atoms: _711  and  _712
REMARK  278  A    between atoms: _712  and  _713
REMARK  279  A    between atoms: _722  and  _724
REMARK  280  A    between atoms: _724  and  _725
REMARK  281  A    between atoms: _724  and  _727
REMARK  282  A    between atoms: _727  and  _728
REMARK  283  A    between atoms: _738  and  _740
REMARK  284  A    between atoms: _740  and  _741
REMARK  285  A    between atoms: _740  and  _743
REMARK  286  A    between atoms: _743  and  _744
REMARK  287  A    between atoms: _747  and  _749
REMARK  288  A    between atoms: _749  and  _750
REMARK  289  A    between atoms: _753  and  _755
REMARK  290  A    between atoms: _755  and  _756
REMARK  291  A    between atoms: _755  and  _758
REMARK  292  A    between atoms: _758  and  _759
REMARK  293  A    between atoms: _762  and  _764
REMARK  294  A    between atoms: _764  and  _765
REMARK  295  A    between atoms: _764  and  _767
REMARK  296  A    between atoms: _767  and  _768
REMARK  297  A    between atoms: _768  and  _769
REMARK  298  A    between atoms: _769  and  _770
REMARK  299  A    between atoms: _770  and  _771
REMARK  300  A    between atoms: _775  and  _777
REMARK  301  A    between atoms: _777  and  _778
REMARK  302  A    between atoms: _777  and  _780
REMARK  303  A    between atoms: _780  and  _781
REMARK                            x       y       z     vdW  Elec       q    Type
REMARK                         _______ _______ _______ _____ _____    ______ ____
ROOT
ATOM      1  CA  ASP A   2      -0.534 -11.895  -7.913  0.00  0.00    +0.160 C 
ENDROOT
BRANCH   1   3
ATOM      2  C   GLN A   1      -1.825 -11.323  -9.911  0.00  0.00    +0.238 C 
ATOM      3  N   ASP A   2      -1.398 -11.012  -8.690  0.00  0.00    -0.297 N 
ATOM      4  H   ASP A   2      -1.691 -10.105  -8.273  0.00  0.00    +0.150 HD
ATOM      5  O   GLN A   1      -1.532 -12.375 -10.481  0.00  0.00    -0.274 OA
BRANCH   2   6
ATOM      6  CA  GLN A   1      -2.719 -10.287 -10.589  0.00  0.00    +0.145 C 
BRANCH   6   7
ATOM      7  N   GLN A   1      -2.482 -10.261 -12.029  0.00  0.00    -0.238 NA
ATOM      8  H   GLN A   1      -3.261 -10.511 -12.671  0.00  0.00    +0.142 HD
ENDBRANCH   6   7
BRANCH   6   9
ATOM      9  CB  GLN A   1      -4.192 -10.606 -10.294  0.00  0.00    +0.036 C 
BRANCH   9  10
ATOM     10  CG  GLN A   1      -4.573 -10.484  -8.814  0.00  0.00    +0.087 C 
BRANCH  10  11
ATOM     11  CD  GLN A   1      -6.070 -10.627  -8.577  0.00  0.00    +0.219 C 
ATOM     12  OE1 GLN A   1      -6.704  -9.740  -8.011  0.00  0.00    -0.275 OA
ATOM     13  NE2 GLN A   1      -6.637 -11.748  -9.012  0.00  0.00    -0.329 N 
ATOM     14 HE21 GLN A   1      -7.657 -11.901  -8.878  0.00  0.00    +0.145 HD
ATOM     15 HE22 GLN A   1      -6.061 -12.472  -9.486  0.00  0.00    +0.145 HD
ENDBRANCH  10  11
ENDBRANCH   9  10
ENDBRANCH   6   9
ENDBRANCH   2   6
ENDBRANCH   1   3
BRANCH   1  16
ATOM     16  C   ASP A   2      -1.289 -12.275  -6.652  0.00  0.00    +0.241 C 
ATOM     17  O   ASP A   2      -1.536 -11.426  -5.797  0.00  0.00    -0.273 OA
ATOM     18  N   TYR A   3      -1.648 -13.547  -6.519  0.00  0.00    -0.298 N 
ATOM     19  H   TYR A   3      -1.386 -14.239  -7.250  0.00  0.00    +0.150 HD
BRANCH  18  20
ATOM     20  CA  TYR A   3      -2.408 -13.974  -5.351  0.00  0.00    +0.141 C 
BRANCH  20  21
ATOM     21  C   TYR A   3      -1.735 -13.666  -4.012  0.00  0.00    +0.227 C 
ATOM     22  O   TYR A   3      -2.411 -13.568  -2.989  0.00  0.00    -0.286 OA
ENDBRANCH  20  21
BRANCH  20  23
ATOM     23  CB  TYR A   3      -2.748 -15.469  -5.445  0.00  0.00    +0.054 C 
BRANCH  23  24
ATOM     24  CG  TYR A   3      -3.675 -15.935  -4.345  0.00  0.00    -0.020 A 
ATOM     25  CD2 TYR A   3      -3.169 -16.510  -3.180  0.00  0.00    -0.001 A 
ATOM     26  CE2 TYR A   3      -4.008 -16.867  -2.128  0.00  0.00    +0.036 A 
ATOM     27  CZ  TYR A   3      -5.374 -16.652  -2.234  0.00  0.00    +0.134 A 
ATOM     28  CE1 TYR A   3      -5.908 -16.088  -3.387  0.00  0.00    +0.036 A 
ATOM     29  CD1 TYR A   3      -5.057 -15.733  -4.436  0.00  0.00    -0.001 A 
BRANCH  27  30
ATOM     30  OH  TYR A   3      -6.195 -16.973  -1.174  0.00  0.00    -0.506 OA
ATOM     31  HH  TYR A   3      -6.649 -16.155  -0.850  0.00  0.00    +0.292 HD
ENDBRANCH  27  30
ENDBRANCH  23  24
ENDBRANCH  20  23
ENDBRANCH  18  20
ENDBRANCH   1  16
BRANCH   1  32
ATOM     32  CB  ASP A   2       0.749 -11.160  -7.536  0.00  0.00    +0.143 C 
BRANCH  32  33
ATOM     33  CG  ASP A   2       1.790 -12.073  -6.918  0.00  0.00    +0.367 C 
ATOM     34  OD2 ASP A   2       1.416 -13.121  -6.350  0.00  0.00    -0.246 OA
ATOM     35  OD1 ASP A   2       2.989 -11.727  -6.988  0.00  0.00    -0.246 OA
ENDBRANCH  32  33
ENDBRANCH   1  32
TORSDOF 14
REMARK  Name = ../refined-set-2016/1y3p/1y3p_pocket.pdb
REMARK  303 active torsions:
REMARK  status: ('A' for Active; 'I' for Inactive)
REMARK    1  A    between atoms: _1  and  _3
REMARK    2  A    between atoms: _3  and  _4
REMARK    3  A    between atoms: _3  and  _6
REMARK    4  A    between atoms: _6  and  _7
REMARK    5  A    between atoms: _12  and  _14
REMARK    6  A    between atoms: _14  and  _15
REMARK    7  A    between atoms: _14  and  _17
REMARK    8  A    between atoms: _17  and  _18
REMARK    9  A    between atoms: _24  and  _26
REMARK   10  A    between atoms: _26  and  _27
REMARK   11  A    between atoms: _26  and  _29
REMARK   12  A    between atoms: _29  and  _30
REMARK   13  A    between atoms: _30  and  _31
REMARK   14  A    between atoms: _31  and  _32
REMARK   15  A    between atoms: _41  and  _43
REMARK   16  A    between atoms: _43  and  _44
REMARK   17  A    between atoms: _43  and  _46
REMARK   18  A    between atoms: _46  and  _47
REMARK   19  A    between atoms: _50  and  _52
REMARK   20  A    between atoms: _52  and  _53
REMARK   21  A    between atoms: _52  and  _55
REMARK   22  A    between atoms: _55  and  _56
REMARK   23  A    between atoms: _56  and  _57
REMARK   24  A    between atoms: _57  and  _58
REMARK   25  A    between atoms: _58  and  _59
REMARK   26  A    between atoms: _63  and  _65
REMARK   27  A    between atoms: _65  and  _66
REMARK   28  A    between atoms: _65  and  _68
REMARK   29  A    between atoms: _68  and  _69
REMARK   30  A    between atoms: _79  and  _81
REMARK   31  A    between atoms: _81  and  _82
REMARK   32  A    between atoms: _81  and  _84
REMARK   33  A    between atoms: _84  and  _85
REMARK   34  A    between atoms: _88  and  _90
REMARK   35  A    between atoms: _90  and  _91
REMARK   36  A    between atoms: _90  and  _93
REMARK   37  A    between atoms: _93  and  _94
REMARK   38  A    between atoms: _99  and  _101
REMARK   39  A    between atoms: _101  and  _102
REMARK   40  A    between atoms: _101  and  _104
REMARK   41  A    between atoms: _104  and  _105
REMARK   42  A    between atoms: _107  and  _109
REMARK   43  A    between atoms: _109  and  _110
REMARK   44  A    between atoms: _109  and  _112
REMARK   45  A    between atoms: _112  and  _113
REMARK   46  A    between atoms: _113  and  _114
REMARK   47  A    between atoms: _119  and  _121
REMARK   48  A    between atoms: _121  and  _122
REMARK   49  A    between atoms: _121  and  _124
REMARK   50  A    between atoms: _124  and  _125
REMARK   51  A    between atoms: _125  and  _126
REMARK   52  A    between atoms: _129  and  _131
REMARK   53  A    between atoms: _131  and  _132
REMARK   54  A    between atoms: _134  and  _136
REMARK   55  A    between atoms: _136  and  _137
REMARK   56  A    between atoms: _136  and  _139
REMARK   57  A    between atoms: _139  and  _140
REMARK   58  A    between atoms: _143  and  _145
REMARK   59  A    between atoms: _145  and  _146
REMARK   60  A    between atoms: _145  and  _148
REMARK   61  A    between atoms: _148  and  _149
REMARK   62  A    between atoms: _154  and  _156
REMARK   63  A    between atoms: _156  and  _157
REMARK   64  A    between atoms: _156  and  _159
REMARK   65  A    between atoms: _159  and  _160
REMARK   66  A    between atoms: _163  and  _165
REMARK   67  A    between atoms: _165  and  _166
REMARK   68  A    between atoms: _165  and  _168
REMARK   69  A    between atoms: _168  and  _169
REMARK   70  A    between atoms: _169  and  _170
REMARK   71  A    between atoms: _170  and  _171
REMARK   72  A    between atoms: _171  and  _172
REMARK   73  A    between atoms: _176  and  _178
REMARK   74  A    between atoms: _178  and  _179
REMARK   75  A    between atoms: _178  and  _181
REMARK   76  A    between atoms: _181  and  _182
REMARK   77  A    between atoms: _187  and  _188
REMARK   78  A    between atoms: _191  and  _192
REMARK   79  A    between atoms: _197  and  _199
REMARK   80  A    between atoms: _199  and  _200
REMARK   81  A    between atoms: _199  and  _202
REMARK   82  A    between atoms: _202  and  _203
REMARK   83  A    between atoms: _206  and  _208
REMARK   84  A    between atoms: _208  and  _209
REMARK   85  A    between atoms: _211  and  _213
REMARK   86  A    between atoms: _213  and  _214
REMARK   87  A    between atoms: _213  and  _216
REMARK   88  A    between atoms: _219  and  _221
REMARK   89  A    between atoms: _221  and  _222
REMARK   90  A    between atoms: _221  and  _224
REMARK   91  A    between atoms: _224  and  _225
REMARK   92  A    between atoms: _227  and  _229
REMARK   93  A    between atoms: _229  and  _230
REMARK   94  A    between atoms: _229  and  _232
REMARK   95  A    between atoms: _232  and  _233
REMARK   96  A    between atoms: _233  and  _234
REMARK   97  A    between atoms: _234  and  _235
REMARK   98  A    between atoms: _244  and  _246
REMARK   99  A    between atoms: _246  and  _247
REMARK  100  A    between atoms: _246  and  _249
REMARK  101  A    between atoms: _249  and  _250
REMARK  102  A    between atoms: _255  and  _257
REMARK  103  A    between atoms: _257  and  _258
REMARK  104  A    between atoms: _257  and  _260
REMARK  105  A    between atoms: _260  and  _261
REMARK  106  A    between atoms: _261  and  _262
REMARK  107  A    between atoms: _262  and  _263
REMARK  108  A    between atoms: _272  and  _274
REMARK  109  A    between atoms: _274  and  _275
REMARK  110  A    between atoms: _274  and  _277
REMARK  111  A    between atoms: _277  and  _278
REMARK  112  A    between atoms: _282  and  _283
REMARK  113  A    between atoms: _288  and  _290
REMARK  114  A    between atoms: _290  and  _291
REMARK  115  A    between atoms: _290  and  _293
REMARK  116  A    between atoms: _293  and  _294
REMARK  117  A    between atoms: _294  and  _295
REMARK  118  A    between atoms: _298  and  _300
REMARK  119  A    between atoms: _300  and  _301
REMARK  120  A    between atoms: _300  and  _303
REMARK  121  A    between atoms: _303  and  _304
REMARK  122  A    between atoms: _304  and  _305
REMARK  123  A    between atoms: _308  and  _310
REMARK  124  A    between atoms: _310  and  _311
REMARK  125  A    between atoms: _310  and  _313
REMARK  126  A    between atoms: _313  and  _314
REMARK  127  A    between atoms: _319  and  _321
REMARK  128  A    between atoms: _321  and  _322
REMARK  129  A    between atoms: _321  and  _324
REMARK  130  A    between atoms: _324  and  _325
REMARK  131  A    between atoms: _328  and  _330
REMARK  132  A    between atoms: _330  and  _331
REMARK  133  A    between atoms: _330  and  _333
REMARK  134  A    between atoms: _333  and  _334
REMARK  135  A    between atoms: _344  and  _346
REMARK  136  A    between atoms: _346  and  _347
REMARK  137  A    between atoms: _346  and  _349
REMARK  138  A    between atoms: _349  and  _350
REMARK  139  A    between atoms: _350  and  _351
REMARK  140  A    between atoms: _353  and  _355
REMARK  141  A    between atoms: _355  and  _356
REMARK  142  A    between atoms: _355  and  _358
REMARK  143  A    between atoms: _358  and  _359
REMARK  144  A    between atoms: _359  and  _360
REMARK  145  A    between atoms: _360  and  _361
REMARK  146  A    between atoms: _361  and  _362
REMARK  147  A    between atoms: _366  and  _368
REMARK  148  A    between atoms: _368  and  _369
REMARK  149  A    between atoms: _372  and  _374
REMARK  150  A    between atoms: _374  and  _375
REMARK  151  A    between atoms: _374  and  _377
REMARK  152  A    between atoms: _377  and  _378
REMARK  153  A    between atoms: _378  and  _379
REMARK  154  A    between atoms: _379  and  _380
REMARK  155  A    between atoms: _389  and  _391
REMARK  156  A    between atoms: _391  and  _392
REMARK  157  A    between atoms: _391  and  _394
REMARK  158  A    between atoms: _394  and  _395
REMARK  159  A    between atoms: _398  and  _400
REMARK  160  A    between atoms: _400  and  _401
REMARK  161  A    between atoms: _400  and  _403
REMARK  162  A    between atoms: _403  and  _404
REMARK  163  A    between atoms: _414  and  _416
REMARK  164  A    between atoms: _416  and  _417
REMARK  165  A    between atoms: _416  and  _419
REMARK  166  A    between atoms: _419  and  _420
REMARK  167  A    between atoms: _426  and  _428
REMARK  168  A    between atoms: _428  and  _429
REMARK  169  A    between atoms: _432  and  _434
REMARK  170  A    between atoms: _434  and  _435
REMARK  171  A    between atoms: _434  and  _437
REMARK  172  A    between atoms: _437  and  _438
REMARK  173  A    between atoms: _440  and  _442
REMARK  174  A    between atoms: _442  and  _443
REMARK  175  A    between atoms: _442  and  _445
REMARK  176  A    between atoms: _445  and  _446
REMARK  177  A    between atoms: _449  and  _451
REMARK  178  A    between atoms: _451  and  _452
REMARK  179  A    between atoms: _455  and  _457
REMARK  180  A    between atoms: _457  and  _458
REMARK  181  A    between atoms: _457  and  _460
REMARK  182  A    between atoms: _460  and  _461
REMARK  183  A    between atoms: _464  and  _466
REMARK  184  A    between atoms: _466  and  _467
REMARK  185  A    between atoms: _466  and  _469
REMARK  186  A    between atoms: _469  and  _470
REMARK  187  A    between atoms: _473  and  _475
REMARK  188  A    between atoms: _475  and  _476
REMARK  189  A    between atoms: _475  and  _478
REMARK  190  A    between atoms: _478  and  _479
REMARK  191  A    between atoms: _479  and  _480
REMARK  192  A    between atoms: _480  and  _481
REMARK  193  A    between atoms: _490  and  _492
REMARK  194  A    between atoms: _492  and  _493
REMARK  195  A    between atoms: _492  and  _495
REMARK  196  A    between atoms: _495  and  _496
REMARK  197  A    between atoms: _496  and  _497
REMARK  198  A    between atoms: _502  and  _504
REMARK  199  A    between atoms: _504  and  _505
REMARK  200  A    between atoms: _504  and  _507
REMARK  201  A    between atoms: _507  and  _508
REMARK  202  A    between atoms: _508  and  _509
REMARK  203  A    between atoms: _509  and  _510
REMARK  204  A    between atoms: _520  and  _521
REMARK  205  A    between atoms: _526  and  _528
REMARK  206  A    between atoms: _528  and  _529
REMARK  207  A    between atoms: _528  and  _531
REMARK  208  A    between atoms: _531  and  _532
REMARK  209  A    between atoms: _535  and  _537
REMARK  210  A    between atoms: _537  and  _538
REMARK  211  A    between atoms: _537  and  _540
REMARK  212  A    between atoms: _540  and  _541
REMARK  213  A    between atoms: _547  and  _548
REMARK  214  A    between atoms: _553  and  _555
REMARK  215  A    between atoms: _555  and  _556
REMARK  216  A    between atoms: _555  and  _558
REMARK  217  A    between atoms: _561  and  _563
REMARK  218  A    between atoms: _563  and  _564
REMARK  219  A    between atoms: _563  and  _566
REMARK  220  A    between atoms: _566  and  _567
REMARK  221  A    between atoms: _572  and  _574
REMARK  222  A    between atoms: _574  and  _575
REMARK  223  A    between atoms: _574  and  _577
REMARK  224  A    between atoms: _577  and  _578
REMARK  225  A    between atoms: _583  and  _585
REMARK  226  A    between atoms: _585  and  _586
REMARK  227  A    between atoms: _585  and  _588
REMARK  228  A    between atoms: _588  and  _589
REMARK  229  A    between atoms: _589  and  _590
REMARK  230  A    between atoms: _592  and  _594
REMARK  231  A    between atoms: _594  and  _595
REMARK  232  A    between atoms: _594  and  _597
REMARK  233  A    between atoms: _597  and  _598
REMARK  234  A    between atoms: _603  and  _604
REMARK  235  A    between atoms: _606  and  _608
REMARK  236  A    between atoms: _608  and  _609
REMARK  237  A    between atoms: _608  and  _611
REMARK  238  A    between atoms: _611  and  _612
REMARK  239  A    between atoms: _612  and  _613
REMARK  240  A    between atoms: _618  and  _620
REMARK  241  A    between atoms: _620  and  _621
REMARK  242  A    between atoms: _620  and  _623
REMARK  243  A    between atoms: _623  and  _624
REMARK  244  A    between atoms: _628  and  _629
REMARK  245  A    between atoms: _634  and  _636
REMARK  246  A    between atoms: _636  and  _637
REMARK  247  A    between atoms: _636  and  _639
REMARK  248  A    between atoms: _639  and  _640
REMARK  249  A    between atoms: _646  and  _648
REMARK  250  A    between atoms: _648  and  _649
REMARK  251  A    between atoms: _648  and  _651
REMARK  252  A    between atoms: _651  and  _652
REMARK  253  A    between atoms: _652  and  _653
REMARK  254  A    between atoms: _658  and  _660
REMARK  255  A    between atoms: _660  and  _661
REMARK  256  A    between atoms: _660  and  _663
REMARK  257  A    between atoms: _663  and  _664
REMARK  258  A    between atoms: _667  and  _669
REMARK  259  A    between atoms: _669  and  _670
REMARK  260  A    between atoms: _669  and  _672
REMARK  261  A    between atoms: _672  and  _673
REMARK  262  A    between atoms: _678  and  _679
REMARK  263  A    between atoms: _681  and  _683
REMARK  264  A    between atoms: _683  and  _684
REMARK  265  A    between atoms: _683  and  _686
REMARK  266  A    between atoms: _686  and  _687
REMARK  267  A    between atoms: _692  and  _693
REMARK  268  A    between atoms: _695  and  _697
REMARK  269  A    between atoms: _697  and  _698
REMARK  270  A    between atoms: _697  and  _700
REMARK  271  A    between atoms: _700  and  _701
REMARK  272  A    between atoms: _701  and  _702
REMARK  273  A    between atoms: _705  and  _707
REMARK  274  A    between atoms: _707  and  _708
REMARK  275  A    between atoms: _707  and  _710
REMARK  276  A    between atoms: _710  and  _711
REMARK  277  A    between atoms: _711  and  _712
REMARK  278  A    between atoms: _712  and  _713
REMARK  279  A    between atoms: _722  and  _724
REMARK  280  A    between atoms: _724  and  _725
REMARK  281  A    between atoms: _724  and  _727
REMARK  282  A    between atoms: _727  and  _728
REMARK  283  A    between atoms: _738  and  _740
REMARK  284  A    between atoms: _740  and  _741
REMARK  285  A    between atoms: _740  and  _743
REMARK  286  A    between atoms: _743  and  _744
REMARK  287  A    between atoms: _747  and  _749
REMARK  288  A    between atoms: _749  and  _750
REMARK  289  A    between atoms: _753  and  _755
REMARK  290  A    between atoms: _755  and  _756
REMARK  291  A    between atoms: _755  and  _758
REMARK  292  A    between atoms: _758  and  _759
REMARK  293  A    between atoms: _762  and  _764
REMARK  294  A    between atoms: _764  and  _765
REMARK  295  A    between atoms: _764  and  _767
REMARK  296  A    between atoms: _767  and  _768
REMARK  297  A    between atoms: _768  and  _769
REMARK  298  A    between atoms: _769  and  _770
REMARK  299  A    between atoms: _770  and  _771
REMARK  300  A    between atoms: _775  and  _777
REMARK  301  A    between atoms: _777  and  _778
REMARK  302  A    between atoms: _777  and  _780
REMARK  303  A    between atoms: _780  and  _781
REMARK                            x       y       z     vdW  Elec       q    Type
REMARK                         _______ _______ _______ _____ _____    ______ ____
ROOT
ATOM      1  CA  GLU A   2      -4.522 -11.364  -1.465  0.00  0.00    +0.149 C 
ENDROOT
BRANCH   1   4
ATOM      2  C   TYR A   1      -2.510  -9.999  -1.692  0.00  0.00    +0.239 C 
ATOM      3  O   TYR A   1      -2.779  -9.326  -0.696  0.00  0.00    -0.274 OA
ATOM      4  N   GLU A   2      -3.264 -11.009  -2.118  0.00  0.00    -0.297 N 
ATOM      5  H   GLU A   2      -2.949 -11.562  -2.940  0.00  0.00    +0.150 HD
BRANCH   2   6
ATOM      6  CA  TYR A   1      -1.250  -9.719  -2.505  0.00  0.00    +0.149 C 
BRANCH   6   7
ATOM      7  N   TYR A   1      -0.708 -10.983  -2.979  0.00  0.00    -0.238 NA
ATOM      8  H   TYR A   1      -0.673 -11.171  -4.001  0.00  0.00    +0.142 HD
ENDBRANCH   6   7
BRANCH   6   9
ATOM      9  CB  TYR A   1      -1.591  -8.811  -3.701  0.00  0.00    +0.053 C 
BRANCH   9  10
ATOM     10  CG  TYR A   1      -3.080  -8.550  -3.918  0.00  0.00    -0.020 A 
ATOM     11  CD2 TYR A   1      -3.735  -7.533  -3.226  0.00  0.00    -0.001 A 
ATOM     12  CE2 TYR A   1      -5.098  -7.283  -3.417  0.00  0.00    +0.036 A 
ATOM     13  CZ  TYR A   1      -5.823  -8.056  -4.311  0.00  0.00    +0.134 A 
ATOM     14  CE1 TYR A   1      -5.199  -9.081  -5.014  0.00  0.00    +0.036 A 
ATOM     15  CD1 TYR A   1      -3.827  -9.323  -4.813  0.00  0.00    -0.001 A 
BRANCH  13  16
ATOM     16  OH  TYR A   1      -7.162  -7.775  -4.509  0.00  0.00    -0.506 OA
ATOM     17  HH  TYR A   1      -7.702  -8.574  -4.285  0.00  0.00    +0.292 HD
ENDBRANCH  13  16
ENDBRANCH   9  10
ENDBRANCH   6   9
ENDBRANCH   2   6
ENDBRANCH   1   4
BRANCH   1  18
ATOM     18  C   GLU A   2      -4.347 -12.201  -0.203  0.00  0.00    +0.241 C 
ATOM     19  O   GLU A   2      -5.063 -12.021   0.782  0.00  0.00    -0.273 OA
ATOM     20  N   ARG A   3      -3.400 -13.126  -0.236  0.00  0.00    -0.298 N 
ATOM     21  H   ARG A   3      -2.828 -13.244  -1.097  0.00  0.00    +0.150 HD
BRANCH  20  22
ATOM     22  CA  ARG A   3      -3.149 -13.978   0.914  0.00  0.00    +0.137 C 
BRANCH  22  23
ATOM     23  C   ARG A   3      -2.900 -13.169   2.188  0.00  0.00    +0.227 C 
ATOM     24  O   ARG A   3      -3.418 -13.504   3.249  0.00  0.00    -0.286 OA
ENDBRANCH  22  23
BRANCH  22  25
ATOM     25  CB  ARG A   3      -1.957 -14.898   0.623  0.00  0.00    +0.031 C 
BRANCH  25  26
ATOM     26  CG  ARG A   3      -1.349 -15.571   1.843  0.00  0.00    +0.045 C 
BRANCH  26  27
ATOM     27  CD  ARG A   3      -0.617 -16.837   1.442  0.00  0.00    +0.174 C 
BRANCH  27  28
ATOM     28  NE  ARG A   3      -1.552 -17.951   1.297  0.00  0.00    -0.265 N 
ATOM     29  HE  ARG A   3      -2.312 -18.038   2.002  0.00  0.00    +0.259 HD
ATOM     30  CZ  ARG A   3      -1.501 -18.862   0.329  0.00  0.00    +0.342 C 
ATOM     31  NH2 ARG A   3      -2.399 -19.835   0.293  0.00  0.00    -0.292 N 
ATOM     32 HH21 ARG A   3      -3.141 -19.885   1.020  0.00  0.00    +0.255 HD
ATOM     33 HH22 ARG A   3      -2.362 -20.549  -0.462  0.00  0.00    +0.255 HD
ATOM     34  NH1 ARG A   3      -0.557 -18.801  -0.601  0.00  0.00    -0.292 N 
ATOM     35 HH11 ARG A   3       0.149 -18.038  -0.576  0.00  0.00    +0.255 HD
ATOM     36 HH12 ARG A   3      -0.523 -19.516  -1.355  0.00  0.00    +0.255 HD
ENDBRANCH  27  28
ENDBRANCH  26  27
ENDBRANCH  25  26
ENDBRANCH  22  25
ENDBRANCH  20  22
ENDBRANCH   1  18
BRANCH   1  37
ATOM     37  CB  GLU A   2      -5.418 -12.113  -2.455  0.00  0.00    +0.041 C 
BRANCH  37  38
ATOM     38  CG  GLU A   2      -6.879 -12.244  -2.020  0.00  0.00    +0.116 C 
BRANCH  38  39
ATOM     39  CD  GLU A   2      -7.727 -12.898  -3.092  0.00  0.00    +0.365 C 
ATOM     40  OE2 GLU A   2      -8.613 -13.717  -2.760  0.00  0.00    -0.246 OA
ATOM     41  OE1 GLU A   2      -7.502 -12.578  -4.276  0.00  0.00    -0.246 OA
ENDBRANCH  38  39
ENDBRANCH  37  38
ENDBRANCH   1  37
TORSDOF 16
REMARK  Name = ../refined-set-2016/1y3p/1y3p_pocket.pdb
REMARK  303 active torsions:
REMARK  status: ('A' for Active; 'I' for Inactive)
REMARK    1  A    between atoms: _1  and  _3
REMARK    2  A    between atoms: _3  and  _4
REMARK    3  A    between atoms: _3  and  _6
REMARK    4  A    between atoms: _6  and  _7
REMARK    5  A    between atoms: _12  and  _14
REMARK    6  A    between atoms: _14  and  _15
REMARK    7  A    between atoms: _14  and  _17
REMARK    8  A    between atoms: _17  and  _18
REMARK    9  A    between atoms: _24  and  _26
REMARK   10  A    between atoms: _26  and  _27
REMARK   11  A    between atoms: _26  and  _29
REMARK   12  A    between atoms: _29  and  _30
REMARK   13  A    between atoms: _30  and  _31
REMARK   14  A    between atoms: _31  and  _32
REMARK   15  A    between atoms: _41  and  _43
REMARK   16  A    between atoms: _43  and  _44
REMARK   17  A    between atoms: _43  and  _46
REMARK   18  A    between atoms: _46  and  _47
REMARK   19  A    between atoms: _50  and  _52
REMARK   20  A    between atoms: _52  and  _53
REMARK   21  A    between atoms: _52  and  _55
REMARK   22  A    between atoms: _55  and  _56
REMARK   23  A    between atoms: _56  and  _57
REMARK   24  A    between atoms: _57  and  _58
REMARK   25  A    between atoms: _58  and  _59
REMARK   26  A    between atoms: _63  and  _65
REMARK   27  A    between atoms: _65  and  _66
REMARK   28  A    between atoms: _65  and  _68
REMARK   29  A    between atoms: _68  and  _69
REMARK   30  A    between atoms: _79  and  _81
REMARK   31  A    between atoms: _81  and  _82
REMARK   32  A    between atoms: _81  and  _84
REMARK   33  A    between atoms: _84  and  _85
REMARK   34  A    between atoms: _88  and  _90
REMARK   35  A    between atoms: _90  and  _91
REMARK   36  A    between atoms: _90  and  _93
REMARK   37  A    between atoms: _93  and  _94
REMARK   38  A    between atoms: _99  and  _101
REMARK   39  A    between atoms: _101  and  _102
REMARK   40  A    between atoms: _101  and  _104
REMARK   41  A    between atoms: _104  and  _105
REMARK   42  A    between atoms: _107  and  _109
REMARK   43  A    between atoms: _109  and  _110
REMARK   44  A    between atoms: _109  and  _112
REMARK   45  A    between atoms: _112  and  _113
REMARK   46  A    between atoms: _113  and  _114
REMARK   47  A    between atoms: _119  and  _121
REMARK   48  A    between atoms: _121  and  _122
REMARK   49  A    between atoms: _121  and  _124
REMARK   50  A    between atoms: _124  and  _125
REMARK   51  A    between atoms: _125  and  _126
REMARK   52  A    between atoms: _129  and  _131
REMARK   53  A    between atoms: _131  and  _132
REMARK   54  A    between atoms: _134  and  _136
REMARK   55  A    between atoms: _136  and  _137
REMARK   56  A    between atoms: _136  and  _139
REMARK   57  A    between atoms: _139  and  _140
REMARK   58  A    between atoms: _143  and  _145
REMARK   59  A    between atoms: _145  and  _146
REMARK   60  A    between atoms: _145  and  _148
REMARK   61  A    between atoms: _148  and  _149
REMARK   62  A    between atoms: _154  and  _156
REMARK   63  A    between atoms: _156  and  _157
REMARK   64  A    between atoms: _156  and  _159
REMARK   65  A    between atoms: _159  and  _160
REMARK   66  A    between atoms: _163  and  _165
REMARK   67  A    between atoms: _165  and  _166
REMARK   68  A    between atoms: _165  and  _168
REMARK   69  A    between atoms: _168  and  _169
REMARK   70  A    between atoms: _169  and  _170
REMARK   71  A    between atoms: _170  and  _171
REMARK   72  A    between atoms: _171  and  _172
REMARK   73  A    between atoms: _176  and  _178
REMARK   74  A    between atoms: _178  and  _179
REMARK   75  A    between atoms: _178  and  _181
REMARK   76  A    between atoms: _181  and  _182
REMARK   77  A    between atoms: _187  and  _188
REMARK   78  A    between atoms: _191  and  _192
REMARK   79  A    between atoms: _197  and  _199
REMARK   80  A    between atoms: _199  and  _200
REMARK   81  A    between atoms: _199  and  _202
REMARK   82  A    between atoms: _202  and  _203
REMARK   83  A    between atoms: _206  and  _208
REMARK   84  A    between atoms: _208  and  _209
REMARK   85  A    between atoms: _211  and  _213
REMARK   86  A    between atoms: _213  and  _214
REMARK   87  A    between atoms: _213  and  _216
REMARK   88  A    between atoms: _219  and  _221
REMARK   89  A    between atoms: _221  and  _222
REMARK   90  A    between atoms: _221  and  _224
REMARK   91  A    between atoms: _224  and  _225
REMARK   92  A    between atoms: _227  and  _229
REMARK   93  A    between atoms: _229  and  _230
REMARK   94  A    between atoms: _229  and  _232
REMARK   95  A    between atoms: _232  and  _233
REMARK   96  A    between atoms: _233  and  _234
REMARK   97  A    between atoms: _234  and  _235
REMARK   98  A    between atoms: _244  and  _246
REMARK   99  A    between atoms: _246  and  _247
REMARK  100  A    between atoms: _246  and  _249
REMARK  101  A    between atoms: _249  and  _250
REMARK  102  A    between atoms: _255  and  _257
REMARK  103  A    between atoms: _257  and  _258
REMARK  104  A    between atoms: _257  and  _260
REMARK  105  A    between atoms: _260  and  _261
REMARK  106  A    between atoms: _261  and  _262
REMARK  107  A    between atoms: _262  and  _263
REMARK  108  A    between atoms: _272  and  _274
REMARK  109  A    between atoms: _274  and  _275
REMARK  110  A    between atoms: _274  and  _277
REMARK  111  A    between atoms: _277  and  _278
REMARK  112  A    between atoms: _282  and  _283
REMARK  113  A    between atoms: _288  and  _290
REMARK  114  A    between atoms: _290  and  _291
REMARK  115  A    between atoms: _290  and  _293
REMARK  116  A    between atoms: _293  and  _294
REMARK  117  A    between atoms: _294  and  _295
REMARK  118  A    between atoms: _298  and  _300
REMARK  119  A    between atoms: _300  and  _301
REMARK  120  A    between atoms: _300  and  _303
REMARK  121  A    between atoms: _303  and  _304
REMARK  122  A    between atoms: _304  and  _305
REMARK  123  A    between atoms: _308  and  _310
REMARK  124  A    between atoms: _310  and  _311
REMARK  125  A    between atoms: _310  and  _313
REMARK  126  A    between atoms: _313  and  _314
REMARK  127  A    between atoms: _319  and  _321
REMARK  128  A    between atoms: _321  and  _322
REMARK  129  A    between atoms: _321  and  _324
REMARK  130  A    between atoms: _324  and  _325
REMARK  131  A    between atoms: _328  and  _330
REMARK  132  A    between atoms: _330  and  _331
REMARK  133  A    between atoms: _330  and  _333
REMARK  134  A    between atoms: _333  and  _334
REMARK  135  A    between atoms: _344  and  _346
REMARK  136  A    between atoms: _346  and  _347
REMARK  137  A    between atoms: _346  and  _349
REMARK  138  A    between atoms: _349  and  _350
REMARK  139  A    between atoms: _350  and  _351
REMARK  140  A    between atoms: _353  and  _355
REMARK  141  A    between atoms: _355  and  _356
REMARK  142  A    between atoms: _355  and  _358
REMARK  143  A    between atoms: _358  and  _359
REMARK  144  A    between atoms: _359  and  _360
REMARK  145  A    between atoms: _360  and  _361
REMARK  146  A    between atoms: _361  and  _362
REMARK  147  A    between atoms: _366  and  _368
REMARK  148  A    between atoms: _368  and  _369
REMARK  149  A    between atoms: _372  and  _374
REMARK  150  A    between atoms: _374  and  _375
REMARK  151  A    between atoms: _374  and  _377
REMARK  152  A    between atoms: _377  and  _378
REMARK  153  A    between atoms: _378  and  _379
REMARK  154  A    between atoms: _379  and  _380
REMARK  155  A    between atoms: _389  and  _391
REMARK  156  A    between atoms: _391  and  _392
REMARK  157  A    between atoms: _391  and  _394
REMARK  158  A    between atoms: _394  and  _395
REMARK  159  A    between atoms: _398  and  _400
REMARK  160  A    between atoms: _400  and  _401
REMARK  161  A    between atoms: _400  and  _403
REMARK  162  A    between atoms: _403  and  _404
REMARK  163  A    between atoms: _414  and  _416
REMARK  164  A    between atoms: _416  and  _417
REMARK  165  A    between atoms: _416  and  _419
REMARK  166  A    between atoms: _419  and  _420
REMARK  167  A    between atoms: _426  and  _428
REMARK  168  A    between atoms: _428  and  _429
REMARK  169  A    between atoms: _432  and  _434
REMARK  170  A    between atoms: _434  and  _435
REMARK  171  A    between atoms: _434  and  _437
REMARK  172  A    between atoms: _437  and  _438
REMARK  173  A    between atoms: _440  and  _442
REMARK  174  A    between atoms: _442  and  _443
REMARK  175  A    between atoms: _442  and  _445
REMARK  176  A    between atoms: _445  and  _446
REMARK  177  A    between atoms: _449  and  _451
REMARK  178  A    between atoms: _451  and  _452
REMARK  179  A    between atoms: _455  and  _457
REMARK  180  A    between atoms: _457  and  _458
REMARK  181  A    between atoms: _457  and  _460
REMARK  182  A    between atoms: _460  and  _461
REMARK  183  A    between atoms: _464  and  _466
REMARK  184  A    between atoms: _466  and  _467
REMARK  185  A    between atoms: _466  and  _469
REMARK  186  A    between atoms: _469  and  _470
REMARK  187  A    between atoms: _473  and  _475
REMARK  188  A    between atoms: _475  and  _476
REMARK  189  A    between atoms: _475  and  _478
REMARK  190  A    between atoms: _478  and  _479
REMARK  191  A    between atoms: _479  and  _480
REMARK  192  A    between atoms: _480  and  _481
REMARK  193  A    between atoms: _490  and  _492
REMARK  194  A    between atoms: _492  and  _493
REMARK  195  A    between atoms: _492  and  _495
REMARK  196  A    between atoms: _495  and  _496
REMARK  197  A    between atoms: _496  and  _497
REMARK  198  A    between atoms: _502  and  _504
REMARK  199  A    between atoms: _504  and  _505
REMARK  200  A    between atoms: _504  and  _507
REMARK  201  A    between atoms: _507  and  _508
REMARK  202  A    between atoms: _508  and  _509
REMARK  203  A    between atoms: _509  and  _510
REMARK  204  A    between atoms: _520  and  _521
REMARK  205  A    between atoms: _526  and  _528
REMARK  206  A    between atoms: _528  and  _529
REMARK  207  A    between atoms: _528  and  _531
REMARK  208  A    between atoms: _531  and  _532
REMARK  209  A    between atoms: _535  and  _537
REMARK  210  A    between atoms: _537  and  _538
REMARK  211  A    between atoms: _537  and  _540
REMARK  212  A    between atoms: _540  and  _541
REMARK  213  A    between atoms: _547  and  _548
REMARK  214  A    between atoms: _553  and  _555
REMARK  215  A    between atoms: _555  and  _556
REMARK  216  A    between atoms: _555  and  _558
REMARK  217  A    between atoms: _561  and  _563
REMARK  218  A    between atoms: _563  and  _564
REMARK  219  A    between atoms: _563  and  _566
REMARK  220  A    between atoms: _566  and  _567
REMARK  221  A    between atoms: _572  and  _574
REMARK  222  A    between atoms: _574  and  _575
REMARK  223  A    between atoms: _574  and  _577
REMARK  224  A    between atoms: _577  and  _578
REMARK  225  A    between atoms: _583  and  _585
REMARK  226  A    between atoms: _585  and  _586
REMARK  227  A    between atoms: _585  and  _588
REMARK  228  A    between atoms: _588  and  _589
REMARK  229  A    between atoms: _589  and  _590
REMARK  230  A    between atoms: _592  and  _594
REMARK  231  A    between atoms: _594  and  _595
REMARK  232  A    between atoms: _594  and  _597
REMARK  233  A    between atoms: _597  and  _598
REMARK  234  A    between atoms: _603  and  _604
REMARK  235  A    between atoms: _606  and  _608
REMARK  236  A    between atoms: _608  and  _609
REMARK  237  A    between atoms: _608  and  _611
REMARK  238  A    between atoms: _611  and  _612
REMARK  239  A    between atoms: _612  and  _613
REMARK  240  A    between atoms: _618  and  _620
REMARK  241  A    between atoms: _620  and  _621
REMARK  242  A    between atoms: _620  and  _623
REMARK  243  A    between atoms: _623  and  _624
REMARK  244  A    between atoms: _628  and  _629
REMARK  245  A    between atoms: _634  and  _636
REMARK  246  A    between atoms: _636  and  _637
REMARK  247  A    between atoms: _636  and  _639
REMARK  248  A    between atoms: _639  and  _640
REMARK  249  A    between atoms: _646  and  _648
REMARK  250  A    between atoms: _648  and  _649
REMARK  251  A    between atoms: _648  and  _651
REMARK  252  A    between atoms: _651  and  _652
REMARK  253  A    between atoms: _652  and  _653
REMARK  254  A    between atoms: _658  and  _660
REMARK  255  A    between atoms: _660  and  _661
REMARK  256  A    between atoms: _660  and  _663
REMARK  257  A    between atoms: _663  and  _664
REMARK  258  A    between atoms: _667  and  _669
REMARK  259  A    between atoms: _669  and  _670
REMARK  260  A    between atoms: _669  and  _672
REMARK  261  A    between atoms: _672  and  _673
REMARK  262  A    between atoms: _678  and  _679
REMARK  263  A    between atoms: _681  and  _683
REMARK  264  A    between atoms: _683  and  _684
REMARK  265  A    between atoms: _683  and  _686
REMARK  266  A    between atoms: _686  and  _687
REMARK  267  A    between atoms: _692  and  _693
REMARK  268  A    between atoms: _695  and  _697
REMARK  269  A    between atoms: _697  and  _698
REMARK  270  A    between atoms: _697  and  _700
REMARK  271  A    between atoms: _700  and  _701
REMARK  272  A    between atoms: _701  and  _702
REMARK  273  A    between atoms: _705  and  _707
REMARK  274  A    between atoms: _707  and  _708
REMARK  275  A    between atoms: _707  and  _710
REMARK  276  A    between atoms: _710  and  _711
REMARK  277  A    between atoms: _711  and  _712
REMARK  278  A    between atoms: _712  and  _713
REMARK  279  A    between atoms: _722  and  _724
REMARK  280  A    between atoms: _724  and  _725
REMARK  281  A    between atoms: _724  and  _727
REMARK  282  A    between atoms: _727  and  _728
REMARK  283  A    between atoms: _738  and  _740
REMARK  284  A    between atoms: _740  and  _741
REMARK  285  A    between atoms: _740  and  _743
REMARK  286  A    between atoms: _743  and  _744
REMARK  287  A    between atoms: _747  and  _749
REMARK  288  A    between atoms: _749  and  _750
REMARK  289  A    between atoms: _753  and  _755
REMARK  290  A    between atoms: _755  and  _756
REMARK  291  A    between atoms: _755  and  _758
REMARK  292  A    between atoms: _758  and  _759
REMARK  293  A    between atoms: _762  and  _764
REMARK  294  A    between atoms: _764  and  _765
REMARK  295  A    between atoms: _764  and  _767
REMARK  296  A    between atoms: _767  and  _768
REMARK  297  A    between atoms: _768  and  _769
REMARK  298  A    between atoms: _769  and  _770
REMARK  299  A    between atoms: _770  and  _771
REMARK  300  A    between atoms: _775  and  _777
REMARK  301  A    between atoms: _777  and  _778
REMARK  302  A    between atoms: _777  and  _780
REMARK  303  A    between atoms: _780  and  _781
REMARK                            x       y       z     vdW  Elec       q    Type
REMARK                         _______ _______ _______ _____ _____    ______ ____
ROOT
ATOM      1  CA  TRP A   1      -5.335 -10.069   4.044  0.00  0.00    +0.149 C 
ENDROOT
BRANCH   1   2
ATOM      2  C   TRP A   1      -6.501 -11.056   4.005  0.00  0.00    +0.239 C 
ATOM      3  O   TRP A   1      -7.667 -10.663   4.091  0.00  0.00    -0.274 OA
ATOM      4  N   THR A   2      -6.177 -12.337   3.862  0.00  0.00    -0.296 N 
ATOM      5  H   THR A   2      -5.176 -12.593   3.743  0.00  0.00    +0.150 HD
BRANCH   4   6
ATOM      6  CA  THR A   2      -7.180 -13.393   3.867  0.00  0.00    +0.164 C 
BRANCH   6   7
ATOM      7  C   THR A   2      -7.063 -13.990   5.267  0.00  0.00    +0.229 C 
ATOM      8  O   THR A   2      -6.100 -14.694   5.559  0.00  0.00    -0.286 OA
ENDBRANCH   6   7
BRANCH   6   9
ATOM      9  CB  THR A   2      -6.873 -14.490   2.814  0.00  0.00    +0.136 C 
ATOM     10  CG2 THR A   2      -7.851 -15.653   2.954  0.00  0.00    +0.034 C 
BRANCH   9  11
ATOM     11  OG1 THR A   2      -6.992 -13.944   1.492  0.00  0.00    -0.382 OA
ATOM     12  HG1 THR A   2      -6.349 -13.199   1.385  0.00  0.00    +0.210 HD
ENDBRANCH   9  11
ENDBRANCH   6   9
ENDBRANCH   4   6
ENDBRANCH   1   2
BRANCH   1  13
ATOM     13  N   TRP A   1      -4.145 -10.555   3.343  0.00  0.00    -0.238 NA
ATOM     14  H   TRP A   1      -4.195 -10.778   2.328  0.00  0.00    +0.142 HD
ENDBRANCH   1  13
BRANCH   1  15
ATOM     15  CB  TRP A   1      -5.789  -8.703   3.511  0.00  0.00    +0.054 C 
BRANCH  15  16
ATOM     16  CG  TRP A   1      -5.972  -8.623   2.022  0.00  0.00    -0.002 A 
ATOM     17  CD2 TRP A   1      -7.216  -8.652   1.306  0.00  0.00    +0.013 A 
ATOM     18  CE3 TRP A   1      -8.559  -8.771   1.694  0.00  0.00    +0.001 A 
ATOM     19  CZ3 TRP A   1      -9.542  -8.764   0.712  0.00  0.00    +0.000 A 
ATOM     20  CH2 TRP A   1      -9.205  -8.641  -0.650  0.00  0.00    +0.001 A 
ATOM     21  CZ2 TRP A   1      -7.898  -8.524  -1.056  0.00  0.00    +0.017 A 
ATOM     22  CE2 TRP A   1      -6.910  -8.531  -0.064  0.00  0.00    +0.056 A 
ATOM     23  NE1 TRP A   1      -5.548  -8.432  -0.174  0.00  0.00    -0.352 N 
ATOM     24  HE1 TRP A   1      -5.020  -8.330  -1.064  0.00  0.00    +0.166 HD
ATOM     25  CD1 TRP A   1      -4.993  -8.490   1.082  0.00  0.00    +0.068 A 
ENDBRANCH  15  16
ENDBRANCH   1  15
TORSDOF 8
REMARK  Name = ../refined-set-2016/1y3p/1y3p_pocket.pdb
REMARK  303 active torsions:
REMARK  status: ('A' for Active; 'I' for Inactive)
REMARK    1  A    between atoms: _1  and  _3
REMARK    2  A    between atoms: _3  and  _4
REMARK    3  A    between atoms: _3  and  _6
REMARK    4  A    between atoms: _6  and  _7
REMARK    5  A    between atoms: _12  and  _14
REMARK    6  A    between atoms: _14  and  _15
REMARK    7  A    between atoms: _14  and  _17
REMARK    8  A    between atoms: _17  and  _18
REMARK    9  A    between atoms: _24  and  _26
REMARK   10  A    between atoms: _26  and  _27
REMARK   11  A    between atoms: _26  and  _29
REMARK   12  A    between atoms: _29  and  _30
REMARK   13  A    between atoms: _30  and  _31
REMARK   14  A    between atoms: _31  and  _32
REMARK   15  A    between atoms: _41  and  _43
REMARK   16  A    between atoms: _43  and  _44
REMARK   17  A    between atoms: _43  and  _46
REMARK   18  A    between atoms: _46  and  _47
REMARK   19  A    between atoms: _50  and  _52
REMARK   20  A    between atoms: _52  and  _53
REMARK   21  A    between atoms: _52  and  _55
REMARK   22  A    between atoms: _55  and  _56
REMARK   23  A    between atoms: _56  and  _57
REMARK   24  A    between atoms: _57  and  _58
REMARK   25  A    between atoms: _58  and  _59
REMARK   26  A    between atoms: _63  and  _65
REMARK   27  A    between atoms: _65  and  _66
REMARK   28  A    between atoms: _65  and  _68
REMARK   29  A    between atoms: _68  and  _69
REMARK   30  A    between atoms: _79  and  _81
REMARK   31  A    between atoms: _81  and  _82
REMARK   32  A    between atoms: _81  and  _84
REMARK   33  A    between atoms: _84  and  _85
REMARK   34  A    between atoms: _88  and  _90
REMARK   35  A    between atoms: _90  and  _91
REMARK   36  A    between atoms: _90  and  _93
REMARK   37  A    between atoms: _93  and  _94
REMARK   38  A    between atoms: _99  and  _101
REMARK   39  A    between atoms: _101  and  _102
REMARK   40  A    between atoms: _101  and  _104
REMARK   41  A    between atoms: _104  and  _105
REMARK   42  A    between atoms: _107  and  _109
REMARK   43  A    between atoms: _109  and  _110
REMARK   44  A    between atoms: _109  and  _112
REMARK   45  A    between atoms: _112  and  _113
REMARK   46  A    between atoms: _113  and  _114
REMARK   47  A    between atoms: _119  and  _121
REMARK   48  A    between atoms: _121  and  _122
REMARK   49  A    between atoms: _121  and  _124
REMARK   50  A    between atoms: _124  and  _125
REMARK   51  A    between atoms: _125  and  _126
REMARK   52  A    between atoms: _129  and  _131
REMARK   53  A    between atoms: _131  and  _132
REMARK   54  A    between atoms: _134  and  _136
REMARK   55  A    between atoms: _136  and  _137
REMARK   56  A    between atoms: _136  and  _139
REMARK   57  A    between atoms: _139  and  _140
REMARK   58  A    between atoms: _143  and  _145
REMARK   59  A    between atoms: _145  and  _146
REMARK   60  A    between atoms: _145  and  _148
REMARK   61  A    between atoms: _148  and  _149
REMARK   62  A    between atoms: _154  and  _156
REMARK   63  A    between atoms: _156  and  _157
REMARK   64  A    between atoms: _156  and  _159
REMARK   65  A    between atoms: _159  and  _160
REMARK   66  A    between atoms: _163  and  _165
REMARK   67  A    between atoms: _165  and  _166
REMARK   68  A    between atoms: _165  and  _168
REMARK   69  A    between atoms: _168  and  _169
REMARK   70  A    between atoms: _169  and  _170
REMARK   71  A    between atoms: _170  and  _171
REMARK   72  A    between atoms: _171  and  _172
REMARK   73  A    between atoms: _176  and  _178
REMARK   74  A    between atoms: _178  and  _179
REMARK   75  A    between atoms: _178  and  _181
REMARK   76  A    between atoms: _181  and  _182
REMARK   77  A    between atoms: _187  and  _188
REMARK   78  A    between atoms: _191  and  _192
REMARK   79  A    between atoms: _197  and  _199
REMARK   80  A    between atoms: _199  and  _200
REMARK   81  A    between atoms: _199  and  _202
REMARK   82  A    between atoms: _202  and  _203
REMARK   83  A    between atoms: _206  and  _208
REMARK   84  A    between atoms: _208  and  _209
REMARK   85  A    between atoms: _211  and  _213
REMARK   86  A    between atoms: _213  and  _214
REMARK   87  A    between atoms: _213  and  _216
REMARK   88  A    between atoms: _219  and  _221
REMARK   89  A    between atoms: _221  and  _222
REMARK   90  A    between atoms: _221  and  _224
REMARK   91  A    between atoms: _224  and  _225
REMARK   92  A    between atoms: _227  and  _229
REMARK   93  A    between atoms: _229  and  _230
REMARK   94  A    between atoms: _229  and  _232
REMARK   95  A    between atoms: _232  and  _233
REMARK   96  A    between atoms: _233  and  _234
REMARK   97  A    between atoms: _234  and  _235
REMARK   98  A    between atoms: _244  and  _246
REMARK   99  A    between atoms: _246  and  _247
REMARK  100  A    between atoms: _246  and  _249
REMARK  101  A    between atoms: _249  and  _250
REMARK  102  A    between atoms: _255  and  _257
REMARK  103  A    between atoms: _257  and  _258
REMARK  104  A    between atoms: _257  and  _260
REMARK  105  A    between atoms: _260  and  _261
REMARK  106  A    between atoms: _261  and  _262
REMARK  107  A    between atoms: _262  and  _263
REMARK  108  A    between atoms: _272  and  _274
REMARK  109  A    between atoms: _274  and  _275
REMARK  110  A    between atoms: _274  and  _277
REMARK  111  A    between atoms: _277  and  _278
REMARK  112  A    between atoms: _282  and  _283
REMARK  113  A    between atoms: _288  and  _290
REMARK  114  A    between atoms: _290  and  _291
REMARK  115  A    between atoms: _290  and  _293
REMARK  116  A    between atoms: _293  and  _294
REMARK  117  A    between atoms: _294  and  _295
REMARK  118  A    between atoms: _298  and  _300
REMARK  119  A    between atoms: _300  and  _301
REMARK  120  A    between atoms: _300  and  _303
REMARK  121  A    between atoms: _303  and  _304
REMARK  122  A    between atoms: _304  and  _305
REMARK  123  A    between atoms: _308  and  _310
REMARK  124  A    between atoms: _310  and  _311
REMARK  125  A    between atoms: _310  and  _313
REMARK  126  A    between atoms: _313  and  _314
REMARK  127  A    between atoms: _319  and  _321
REMARK  128  A    between atoms: _321  and  _322
REMARK  129  A    between atoms: _321  and  _324
REMARK  130  A    between atoms: _324  and  _325
REMARK  131  A    between atoms: _328  and  _330
REMARK  132  A    between atoms: _330  and  _331
REMARK  133  A    between atoms: _330  and  _333
REMARK  134  A    between atoms: _333  and  _334
REMARK  135  A    between atoms: _344  and  _346
REMARK  136  A    between atoms: _346  and  _347
REMARK  137  A    between atoms: _346  and  _349
REMARK  138  A    between atoms: _349  and  _350
REMARK  139  A    between atoms: _350  and  _351
REMARK  140  A    between atoms: _353  and  _355
REMARK  141  A    between atoms: _355  and  _356
REMARK  142  A    between atoms: _355  and  _358
REMARK  143  A    between atoms: _358  and  _359
REMARK  144  A    between atoms: _359  and  _360
REMARK  145  A    between atoms: _360  and  _361
REMARK  146  A    between atoms: _361  and  _362
REMARK  147  A    between atoms: _366  and  _368
REMARK  148  A    between atoms: _368  and  _369
REMARK  149  A    between atoms: _372  and  _374
REMARK  150  A    between atoms: _374  and  _375
REMARK  151  A    between atoms: _374  and  _377
REMARK  152  A    between atoms: _377  and  _378
REMARK  153  A    between atoms: _378  and  _379
REMARK  154  A    between atoms: _379  and  _380
REMARK  155  A    between atoms: _389  and  _391
REMARK  156  A    between atoms: _391  and  _392
REMARK  157  A    between atoms: _391  and  _394
REMARK  158  A    between atoms: _394  and  _395
REMARK  159  A    between atoms: _398  and  _400
REMARK  160  A    between atoms: _400  and  _401
REMARK  161  A    between atoms: _400  and  _403
REMARK  162  A    between atoms: _403  and  _404
REMARK  163  A    between atoms: _414  and  _416
REMARK  164  A    between atoms: _416  and  _417
REMARK  165  A    between atoms: _416  and  _419
REMARK  166  A    between atoms: _419  and  _420
REMARK  167  A    between atoms: _426  and  _428
REMARK  168  A    between atoms: _428  and  _429
REMARK  169  A    between atoms: _432  and  _434
REMARK  170  A    between atoms: _434  and  _435
REMARK  171  A    between atoms: _434  and  _437
REMARK  172  A    between atoms: _437  and  _438
REMARK  173  A    between atoms: _440  and  _442
REMARK  174  A    between atoms: _442  and  _443
REMARK  175  A    between atoms: _442  and  _445
REMARK  176  A    between atoms: _445  and  _446
REMARK  177  A    between atoms: _449  and  _451
REMARK  178  A    between atoms: _451  and  _452
REMARK  179  A    between atoms: _455  and  _457
REMARK  180  A    between atoms: _457  and  _458
REMARK  181  A    between atoms: _457  and  _460
REMARK  182  A    between atoms: _460  and  _461
REMARK  183  A    between atoms: _464  and  _466
REMARK  184  A    between atoms: _466  and  _467
REMARK  185  A    between atoms: _466  and  _469
REMARK  186  A    between atoms: _469  and  _470
REMARK  187  A    between atoms: _473  and  _475
REMARK  188  A    between atoms: _475  and  _476
REMARK  189  A    between atoms: _475  and  _478
REMARK  190  A    between atoms: _478  and  _479
REMARK  191  A    between atoms: _479  and  _480
REMARK  192  A    between atoms: _480  and  _481
REMARK  193  A    between atoms: _490  and  _492
REMARK  194  A    between atoms: _492  and  _493
REMARK  195  A    between atoms: _492  and  _495
REMARK  196  A    between atoms: _495  and  _496
REMARK  197  A    between atoms: _496  and  _497
REMARK  198  A    between atoms: _502  and  _504
REMARK  199  A    between atoms: _504  and  _505
REMARK  200  A    between atoms: _504  and  _507
REMARK  201  A    between atoms: _507  and  _508
REMARK  202  A    between atoms: _508  and  _509
REMARK  203  A    between atoms: _509  and  _510
REMARK  204  A    between atoms: _520  and  _521
REMARK  205  A    between atoms: _526  and  _528
REMARK  206  A    between atoms: _528  and  _529
REMARK  207  A    between atoms: _528  and  _531
REMARK  208  A    between atoms: _531  and  _532
REMARK  209  A    between atoms: _535  and  _537
REMARK  210  A    between atoms: _537  and  _538
REMARK  211  A    between atoms: _537  and  _540
REMARK  212  A    between atoms: _540  and  _541
REMARK  213  A    between atoms: _547  and  _548
REMARK  214  A    between atoms: _553  and  _555
REMARK  215  A    between atoms: _555  and  _556
REMARK  216  A    between atoms: _555  and  _558
REMARK  217  A    between atoms: _561  and  _563
REMARK  218  A    between atoms: _563  and  _564
REMARK  219  A    between atoms: _563  and  _566
REMARK  220  A    between atoms: _566  and  _567
REMARK  221  A    between atoms: _572  and  _574
REMARK  222  A    between atoms: _574  and  _575
REMARK  223  A    between atoms: _574  and  _577
REMARK  224  A    between atoms: _577  and  _578
REMARK  225  A    between atoms: _583  and  _585
REMARK  226  A    between atoms: _585  and  _586
REMARK  227  A    between atoms: _585  and  _588
REMARK  228  A    between atoms: _588  and  _589
REMARK  229  A    between atoms: _589  and  _590
REMARK  230  A    between atoms: _592  and  _594
REMARK  231  A    between atoms: _594  and  _595
REMARK  232  A    between atoms: _594  and  _597
REMARK  233  A    between atoms: _597  and  _598
REMARK  234  A    between atoms: _603  and  _604
REMARK  235  A    between atoms: _606  and  _608
REMARK  236  A    between atoms: _608  and  _609
REMARK  237  A    between atoms: _608  and  _611
REMARK  238  A    between atoms: _611  and  _612
REMARK  239  A    between atoms: _612  and  _613
REMARK  240  A    between atoms: _618  and  _620
REMARK  241  A    between atoms: _620  and  _621
REMARK  242  A    between atoms: _620  and  _623
REMARK  243  A    between atoms: _623  and  _624
REMARK  244  A    between atoms: _628  and  _629
REMARK  245  A    between atoms: _634  and  _636
REMARK  246  A    between atoms: _636  and  _637
REMARK  247  A    between atoms: _636  and  _639
REMARK  248  A    between atoms: _639  and  _640
REMARK  249  A    between atoms: _646  and  _648
REMARK  250  A    between atoms: _648  and  _649
REMARK  251  A    between atoms: _648  and  _651
REMARK  252  A    between atoms: _651  and  _652
REMARK  253  A    between atoms: _652  and  _653
REMARK  254  A    between atoms: _658  and  _660
REMARK  255  A    between atoms: _660  and  _661
REMARK  256  A    between atoms: _660  and  _663
REMARK  257  A    between atoms: _663  and  _664
REMARK  258  A    between atoms: _667  and  _669
REMARK  259  A    between atoms: _669  and  _670
REMARK  260  A    between atoms: _669  and  _672
REMARK  261  A    between atoms: _672  and  _673
REMARK  262  A    between atoms: _678  and  _679
REMARK  263  A    between atoms: _681  and  _683
REMARK  264  A    between atoms: _683  and  _684
REMARK  265  A    between atoms: _683  and  _686
REMARK  266  A    between atoms: _686  and  _687
REMARK  267  A    between atoms: _692  and  _693
REMARK  268  A    between atoms: _695  and  _697
REMARK  269  A    between atoms: _697  and  _698
REMARK  270  A    between atoms: _697  and  _700
REMARK  271  A    between atoms: _700  and  _701
REMARK  272  A    between atoms: _701  and  _702
REMARK  273  A    between atoms: _705  and  _707
REMARK  274  A    between atoms: _707  and  _708
REMARK  275  A    between atoms: _707  and  _710
REMARK  276  A    between atoms: _710  and  _711
REMARK  277  A    between atoms: _711  and  _712
REMARK  278  A    between atoms: _712  and  _713
REMARK  279  A    between atoms: _722  and  _724
REMARK  280  A    between atoms: _724  and  _725
REMARK  281  A    between atoms: _724  and  _727
REMARK  282  A    between atoms: _727  and  _728
REMARK  283  A    between atoms: _738  and  _740
REMARK  284  A    between atoms: _740  and  _741
REMARK  285  A    between atoms: _740  and  _743
REMARK  286  A    between atoms: _743  and  _744
REMARK  287  A    between atoms: _747  and  _749
REMARK  288  A    between atoms: _749  and  _750
REMARK  289  A    between atoms: _753  and  _755
REMARK  290  A    between atoms: _755  and  _756
REMARK  291  A    between atoms: _755  and  _758
REMARK  292  A    between atoms: _758  and  _759
REMARK  293  A    between atoms: _762  and  _764
REMARK  294  A    between atoms: _764  and  _765
REMARK  295  A    between atoms: _764  and  _767
REMARK  296  A    between atoms: _767  and  _768
REMARK  297  A    between atoms: _768  and  _769
REMARK  298  A    between atoms: _769  and  _770
REMARK  299  A    between atoms: _770  and  _771
REMARK  300  A    between atoms: _775  and  _777
REMARK  301  A    between atoms: _777  and  _778
REMARK  302  A    between atoms: _777  and  _780
REMARK  303  A    between atoms: _780  and  _781
REMARK                            x       y       z     vdW  Elec       q    Type
REMARK                         _______ _______ _______ _____ _____    ______ ____
ROOT
ATOM      1  CA  ALA A   1     -11.885 -16.866   4.859  0.00  0.00    +0.133 C 
ATOM      2  CB  ALA A   1     -11.335 -15.574   4.243  0.00  0.00    +0.027 C 
ENDROOT
BRANCH   1   3
ATOM      3  N   ALA A   1     -11.836 -16.788   6.317  0.00  0.00    -0.239 NA
ATOM      4  H   ALA A   1     -11.406 -15.956   6.769  0.00  0.00    +0.142 HD
ENDBRANCH   1   3
BRANCH   1   5
ATOM      5  C   ALA A   1     -11.089 -18.069   4.353  0.00  0.00    +0.224 C 
ATOM      6  O   ALA A   1     -11.543 -18.801   3.480  0.00  0.00    -0.287 OA
ENDBRANCH   1   5
TORSDOF 2
REMARK  Name = ../refined-set-2016/1y3p/1y3p_pocket.pdb
REMARK  303 active torsions:
REMARK  status: ('A' for Active; 'I' for Inactive)
REMARK    1  A    between atoms: _1  and  _3
REMARK    2  A    between atoms: _3  and  _4
REMARK    3  A    between atoms: _3  and  _6
REMARK    4  A    between atoms: _6  and  _7
REMARK    5  A    between atoms: _12  and  _14
REMARK    6  A    between atoms: _14  and  _15
REMARK    7  A    between atoms: _14  and  _17
REMARK    8  A    between atoms: _17  and  _18
REMARK    9  A    between atoms: _24  and  _26
REMARK   10  A    between atoms: _26  and  _27
REMARK   11  A    between atoms: _26  and  _29
REMARK   12  A    between atoms: _29  and  _30
REMARK   13  A    between atoms: _30  and  _31
REMARK   14  A    between atoms: _31  and  _32
REMARK   15  A    between atoms: _41  and  _43
REMARK   16  A    between atoms: _43  and  _44
REMARK   17  A    between atoms: _43  and  _46
REMARK   18  A    between atoms: _46  and  _47
REMARK   19  A    between atoms: _50  and  _52
REMARK   20  A    between atoms: _52  and  _53
REMARK   21  A    between atoms: _52  and  _55
REMARK   22  A    between atoms: _55  and  _56
REMARK   23  A    between atoms: _56  and  _57
REMARK   24  A    between atoms: _57  and  _58
REMARK   25  A    between atoms: _58  and  _59
REMARK   26  A    between atoms: _63  and  _65
REMARK   27  A    between atoms: _65  and  _66
REMARK   28  A    between atoms: _65  and  _68
REMARK   29  A    between atoms: _68  and  _69
REMARK   30  A    between atoms: _79  and  _81
REMARK   31  A    between atoms: _81  and  _82
REMARK   32  A    between atoms: _81  and  _84
REMARK   33  A    between atoms: _84  and  _85
REMARK   34  A    between atoms: _88  and  _90
REMARK   35  A    between atoms: _90  and  _91
REMARK   36  A    between atoms: _90  and  _93
REMARK   37  A    between atoms: _93  and  _94
REMARK   38  A    between atoms: _99  and  _101
REMARK   39  A    between atoms: _101  and  _102
REMARK   40  A    between atoms: _101  and  _104
REMARK   41  A    between atoms: _104  and  _105
REMARK   42  A    between atoms: _107  and  _109
REMARK   43  A    between atoms: _109  and  _110
REMARK   44  A    between atoms: _109  and  _112
REMARK   45  A    between atoms: _112  and  _113
REMARK   46  A    between atoms: _113  and  _114
REMARK   47  A    between atoms: _119  and  _121
REMARK   48  A    between atoms: _121  and  _122
REMARK   49  A    between atoms: _121  and  _124
REMARK   50  A    between atoms: _124  and  _125
REMARK   51  A    between atoms: _125  and  _126
REMARK   52  A    between atoms: _129  and  _131
REMARK   53  A    between atoms: _131  and  _132
REMARK   54  A    between atoms: _134  and  _136
REMARK   55  A    between atoms: _136  and  _137
REMARK   56  A    between atoms: _136  and  _139
REMARK   57  A    between atoms: _139  and  _140
REMARK   58  A    between atoms: _143  and  _145
REMARK   59  A    between atoms: _145  and  _146
REMARK   60  A    between atoms: _145  and  _148
REMARK   61  A    between atoms: _148  and  _149
REMARK   62  A    between atoms: _154  and  _156
REMARK   63  A    between atoms: _156  and  _157
REMARK   64  A    between atoms: _156  and  _159
REMARK   65  A    between atoms: _159  and  _160
REMARK   66  A    between atoms: _163  and  _165
REMARK   67  A    between atoms: _165  and  _166
REMARK   68  A    between atoms: _165  and  _168
REMARK   69  A    between atoms: _168  and  _169
REMARK   70  A    between atoms: _169  and  _170
REMARK   71  A    between atoms: _170  and  _171
REMARK   72  A    between atoms: _171  and  _172
REMARK   73  A    between atoms: _176  and  _178
REMARK   74  A    between atoms: _178  and  _179
REMARK   75  A    between atoms: _178  and  _181
REMARK   76  A    between atoms: _181  and  _182
REMARK   77  A    between atoms: _187  and  _188
REMARK   78  A    between atoms: _191  and  _192
REMARK   79  A    between atoms: _197  and  _199
REMARK   80  A    between atoms: _199  and  _200
REMARK   81  A    between atoms: _199  and  _202
REMARK   82  A    between atoms: _202  and  _203
REMARK   83  A    between atoms: _206  and  _208
REMARK   84  A    between atoms: _208  and  _209
REMARK   85  A    between atoms: _211  and  _213
REMARK   86  A    between atoms: _213  and  _214
REMARK   87  A    between atoms: _213  and  _216
REMARK   88  A    between atoms: _219  and  _221
REMARK   89  A    between atoms: _221  and  _222
REMARK   90  A    between atoms: _221  and  _224
REMARK   91  A    between atoms: _224  and  _225
REMARK   92  A    between atoms: _227  and  _229
REMARK   93  A    between atoms: _229  and  _230
REMARK   94  A    between atoms: _229  and  _232
REMARK   95  A    between atoms: _232  and  _233
REMARK   96  A    between atoms: _233  and  _234
REMARK   97  A    between atoms: _234  and  _235
REMARK   98  A    between atoms: _244  and  _246
REMARK   99  A    between atoms: _246  and  _247
REMARK  100  A    between atoms: _246  and  _249
REMARK  101  A    between atoms: _249  and  _250
REMARK  102  A    between atoms: _255  and  _257
REMARK  103  A    between atoms: _257  and  _258
REMARK  104  A    between atoms: _257  and  _260
REMARK  105  A    between atoms: _260  and  _261
REMARK  106  A    between atoms: _261  and  _262
REMARK  107  A    between atoms: _262  and  _263
REMARK  108  A    between atoms: _272  and  _274
REMARK  109  A    between atoms: _274  and  _275
REMARK  110  A    between atoms: _274  and  _277
REMARK  111  A    between atoms: _277  and  _278
REMARK  112  A    between atoms: _282  and  _283
REMARK  113  A    between atoms: _288  and  _290
REMARK  114  A    between atoms: _290  and  _291
REMARK  115  A    between atoms: _290  and  _293
REMARK  116  A    between atoms: _293  and  _294
REMARK  117  A    between atoms: _294  and  _295
REMARK  118  A    between atoms: _298  and  _300
REMARK  119  A    between atoms: _300  and  _301
REMARK  120  A    between atoms: _300  and  _303
REMARK  121  A    between atoms: _303  and  _304
REMARK  122  A    between atoms: _304  and  _305
REMARK  123  A    between atoms: _308  and  _310
REMARK  124  A    between atoms: _310  and  _311
REMARK  125  A    between atoms: _310  and  _313
REMARK  126  A    between atoms: _313  and  _314
REMARK  127  A    between atoms: _319  and  _321
REMARK  128  A    between atoms: _321  and  _322
REMARK  129  A    between atoms: _321  and  _324
REMARK  130  A    between atoms: _324  and  _325
REMARK  131  A    between atoms: _328  and  _330
REMARK  132  A    between atoms: _330  and  _331
REMARK  133  A    between atoms: _330  and  _333
REMARK  134  A    between atoms: _333  and  _334
REMARK  135  A    between atoms: _344  and  _346
REMARK  136  A    between atoms: _346  and  _347
REMARK  137  A    between atoms: _346  and  _349
REMARK  138  A    between atoms: _349  and  _350
REMARK  139  A    between atoms: _350  and  _351
REMARK  140  A    between atoms: _353  and  _355
REMARK  141  A    between atoms: _355  and  _356
REMARK  142  A    between atoms: _355  and  _358
REMARK  143  A    between atoms: _358  and  _359
REMARK  144  A    between atoms: _359  and  _360
REMARK  145  A    between atoms: _360  and  _361
REMARK  146  A    between atoms: _361  and  _362
REMARK  147  A    between atoms: _366  and  _368
REMARK  148  A    between atoms: _368  and  _369
REMARK  149  A    between atoms: _372  and  _374
REMARK  150  A    between atoms: _374  and  _375
REMARK  151  A    between atoms: _374  and  _377
REMARK  152  A    between atoms: _377  and  _378
REMARK  153  A    between atoms: _378  and  _379
REMARK  154  A    between atoms: _379  and  _380
REMARK  155  A    between atoms: _389  and  _391
REMARK  156  A    between atoms: _391  and  _392
REMARK  157  A    between atoms: _391  and  _394
REMARK  158  A    between atoms: _394  and  _395
REMARK  159  A    between atoms: _398  and  _400
REMARK  160  A    between atoms: _400  and  _401
REMARK  161  A    between atoms: _400  and  _403
REMARK  162  A    between atoms: _403  and  _404
REMARK  163  A    between atoms: _414  and  _416
REMARK  164  A    between atoms: _416  and  _417
REMARK  165  A    between atoms: _416  and  _419
REMARK  166  A    between atoms: _419  and  _420
REMARK  167  A    between atoms: _426  and  _428
REMARK  168  A    between atoms: _428  and  _429
REMARK  169  A    between atoms: _432  and  _434
REMARK  170  A    between atoms: _434  and  _435
REMARK  171  A    between atoms: _434  and  _437
REMARK  172  A    between atoms: _437  and  _438
REMARK  173  A    between atoms: _440  and  _442
REMARK  174  A    between atoms: _442  and  _443
REMARK  175  A    between atoms: _442  and  _445
REMARK  176  A    between atoms: _445  and  _446
REMARK  177  A    between atoms: _449  and  _451
REMARK  178  A    between atoms: _451  and  _452
REMARK  179  A    between atoms: _455  and  _457
REMARK  180  A    between atoms: _457  and  _458
REMARK  181  A    between atoms: _457  and  _460
REMARK  182  A    between atoms: _460  and  _461
REMARK  183  A    between atoms: _464  and  _466
REMARK  184  A    between atoms: _466  and  _467
REMARK  185  A    between atoms: _466  and  _469
REMARK  186  A    between atoms: _469  and  _470
REMARK  187  A    between atoms: _473  and  _475
REMARK  188  A    between atoms: _475  and  _476
REMARK  189  A    between atoms: _475  and  _478
REMARK  190  A    between atoms: _478  and  _479
REMARK  191  A    between atoms: _479  and  _480
REMARK  192  A    between atoms: _480  and  _481
REMARK  193  A    between atoms: _490  and  _492
REMARK  194  A    between atoms: _492  and  _493
REMARK  195  A    between atoms: _492  and  _495
REMARK  196  A    between atoms: _495  and  _496
REMARK  197  A    between atoms: _496  and  _497
REMARK  198  A    between atoms: _502  and  _504
REMARK  199  A    between atoms: _504  and  _505
REMARK  200  A    between atoms: _504  and  _507
REMARK  201  A    between atoms: _507  and  _508
REMARK  202  A    between atoms: _508  and  _509
REMARK  203  A    between atoms: _509  and  _510
REMARK  204  A    between atoms: _520  and  _521
REMARK  205  A    between atoms: _526  and  _528
REMARK  206  A    between atoms: _528  and  _529
REMARK  207  A    between atoms: _528  and  _531
REMARK  208  A    between atoms: _531  and  _532
REMARK  209  A    between atoms: _535  and  _537
REMARK  210  A    between atoms: _537  and  _538
REMARK  211  A    between atoms: _537  and  _540
REMARK  212  A    between atoms: _540  and  _541
REMARK  213  A    between atoms: _547  and  _548
REMARK  214  A    between atoms: _553  and  _555
REMARK  215  A    between atoms: _555  and  _556
REMARK  216  A    between atoms: _555  and  _558
REMARK  217  A    between atoms: _561  and  _563
REMARK  218  A    between atoms: _563  and  _564
REMARK  219  A    between atoms: _563  and  _566
REMARK  220  A    between atoms: _566  and  _567
REMARK  221  A    between atoms: _572  and  _574
REMARK  222  A    between atoms: _574  and  _575
REMARK  223  A    between atoms: _574  and  _577
REMARK  224  A    between atoms: _577  and  _578
REMARK  225  A    between atoms: _583  and  _585
REMARK  226  A    between atoms: _585  and  _586
REMARK  227  A    between atoms: _585  and  _588
REMARK  228  A    between atoms: _588  and  _589
REMARK  229  A    between atoms: _589  and  _590
REMARK  230  A    between atoms: _592  and  _594
REMARK  231  A    between atoms: _594  and  _595
REMARK  232  A    between atoms: _594  and  _597
REMARK  233  A    between atoms: _597  and  _598
REMARK  234  A    between atoms: _603  and  _604
REMARK  235  A    between atoms: _606  and  _608
REMARK  236  A    between atoms: _608  and  _609
REMARK  237  A    between atoms: _608  and  _611
REMARK  238  A    between atoms: _611  and  _612
REMARK  239  A    between atoms: _612  and  _613
REMARK  240  A    between atoms: _618  and  _620
REMARK  241  A    between atoms: _620  and  _621
REMARK  242  A    between atoms: _620  and  _623
REMARK  243  A    between atoms: _623  and  _624
REMARK  244  A    between atoms: _628  and  _629
REMARK  245  A    between atoms: _634  and  _636
REMARK  246  A    between atoms: _636  and  _637
REMARK  247  A    between atoms: _636  and  _639
REMARK  248  A    between atoms: _639  and  _640
REMARK  249  A    between atoms: _646  and  _648
REMARK  250  A    between atoms: _648  and  _649
REMARK  251  A    between atoms: _648  and  _651
REMARK  252  A    between atoms: _651  and  _652
REMARK  253  A    between atoms: _652  and  _653
REMARK  254  A    between atoms: _658  and  _660
REMARK  255  A    between atoms: _660  and  _661
REMARK  256  A    between atoms: _660  and  _663
REMARK  257  A    between atoms: _663  and  _664
REMARK  258  A    between atoms: _667  and  _669
REMARK  259  A    between atoms: _669  and  _670
REMARK  260  A    between atoms: _669  and  _672
REMARK  261  A    between atoms: _672  and  _673
REMARK  262  A    between atoms: _678  and  _679
REMARK  263  A    between atoms: _681  and  _683
REMARK  264  A    between atoms: _683  and  _684
REMARK  265  A    between atoms: _683  and  _686
REMARK  266  A    between atoms: _686  and  _687
REMARK  267  A    between atoms: _692  and  _693
REMARK  268  A    between atoms: _695  and  _697
REMARK  269  A    between atoms: _697  and  _698
REMARK  270  A    between atoms: _697  and  _700
REMARK  271  A    between atoms: _700  and  _701
REMARK  272  A    between atoms: _701  and  _702
REMARK  273  A    between atoms: _705  and  _707
REMARK  274  A    between atoms: _707  and  _708
REMARK  275  A    between atoms: _707  and  _710
REMARK  276  A    between atoms: _710  and  _711
REMARK  277  A    between atoms: _711  and  _712
REMARK  278  A    between atoms: _712  and  _713
REMARK  279  A    between atoms: _722  and  _724
REMARK  280  A    between atoms: _724  and  _725
REMARK  281  A    between atoms: _724  and  _727
REMARK  282  A    between atoms: _727  and  _728
REMARK  283  A    between atoms: _738  and  _740
REMARK  284  A    between atoms: _740  and  _741
REMARK  285  A    between atoms: _740  and  _743
REMARK  286  A    between atoms: _743  and  _744
REMARK  287  A    between atoms: _747  and  _749
REMARK  288  A    between atoms: _749  and  _750
REMARK  289  A    between atoms: _753  and  _755
REMARK  290  A    between atoms: _755  and  _756
REMARK  291  A    between atoms: _755  and  _758
REMARK  292  A    between atoms: _758  and  _759
REMARK  293  A    between atoms: _762  and  _764
REMARK  294  A    between atoms: _764  and  _765
REMARK  295  A    between atoms: _764  and  _767
REMARK  296  A    between atoms: _767  and  _768
REMARK  297  A    between atoms: _768  and  _769
REMARK  298  A    between atoms: _769  and  _770
REMARK  299  A    between atoms: _770  and  _771
REMARK  300  A    between atoms: _775  and  _777
REMARK  301  A    between atoms: _777  and  _778
REMARK  302  A    between atoms: _777  and  _780
REMARK  303  A    between atoms: _780  and  _781
REMARK                            x       y       z     vdW  Elec       q    Type
REMARK                         _______ _______ _______ _____ _____    ______ ____
ROOT
ATOM      1  CA  ILE A   1     -11.756 -21.369   0.705  0.00  0.00    +0.133 C 
ENDROOT
BRANCH   1   2
ATOM      2  N   ILE A   1     -12.414 -21.093   1.981  0.00  0.00    -0.239 NA
ATOM      3  H   ILE A   1     -12.032 -20.345   2.594  0.00  0.00    +0.142 HD
ENDBRANCH   1   2
BRANCH   1   4
ATOM      4  C   ILE A   1     -11.342 -22.840   0.626  0.00  0.00    +0.224 C 
ATOM      5  O   ILE A   1     -11.606 -23.526  -0.368  0.00  0.00    -0.287 OA
ENDBRANCH   1   4
BRANCH   1   6
ATOM      6  CB  ILE A   1     -10.496 -20.484   0.544  0.00  0.00    +0.023 C 
ATOM      7  CG2 ILE A   1      -9.589 -21.042  -0.548  0.00  0.00    +0.002 C 
BRANCH   6   8
ATOM      8  CG1 ILE A   1     -10.915 -19.037   0.268  0.00  0.00    +0.002 C 
ATOM      9  CD1 ILE A   1      -9.766 -18.039   0.365  0.00  0.00    +0.000 C 
ENDBRANCH   6   8
ENDBRANCH   1   6
TORSDOF 4
REMARK  Name = ../refined-set-2016/1y3p/1y3p_pocket.pdb
REMARK  303 active torsions:
REMARK  status: ('A' for Active; 'I' for Inactive)
REMARK    1  A    between atoms: _1  and  _3
REMARK    2  A    between atoms: _3  and  _4
REMARK    3  A    between atoms: _3  and  _6
REMARK    4  A    between atoms: _6  and  _7
REMARK    5  A    between atoms: _12  and  _14
REMARK    6  A    between atoms: _14  and  _15
REMARK    7  A    between atoms: _14  and  _17
REMARK    8  A    between atoms: _17  and  _18
REMARK    9  A    between atoms: _24  and  _26
REMARK   10  A    between atoms: _26  and  _27
REMARK   11  A    between atoms: _26  and  _29
REMARK   12  A    between atoms: _29  and  _30
REMARK   13  A    between atoms: _30  and  _31
REMARK   14  A    between atoms: _31  and  _32
REMARK   15  A    between atoms: _41  and  _43
REMARK   16  A    between atoms: _43  and  _44
REMARK   17  A    between atoms: _43  and  _46
REMARK   18  A    between atoms: _46  and  _47
REMARK   19  A    between atoms: _50  and  _52
REMARK   20  A    between atoms: _52  and  _53
REMARK   21  A    between atoms: _52  and  _55
REMARK   22  A    between atoms: _55  and  _56
REMARK   23  A    between atoms: _56  and  _57
REMARK   24  A    between atoms: _57  and  _58
REMARK   25  A    between atoms: _58  and  _59
REMARK   26  A    between atoms: _63  and  _65
REMARK   27  A    between atoms: _65  and  _66
REMARK   28  A    between atoms: _65  and  _68
REMARK   29  A    between atoms: _68  and  _69
REMARK   30  A    between atoms: _79  and  _81
REMARK   31  A    between atoms: _81  and  _82
REMARK   32  A    between atoms: _81  and  _84
REMARK   33  A    between atoms: _84  and  _85
REMARK   34  A    between atoms: _88  and  _90
REMARK   35  A    between atoms: _90  and  _91
REMARK   36  A    between atoms: _90  and  _93
REMARK   37  A    between atoms: _93  and  _94
REMARK   38  A    between atoms: _99  and  _101
REMARK   39  A    between atoms: _101  and  _102
REMARK   40  A    between atoms: _101  and  _104
REMARK   41  A    between atoms: _104  and  _105
REMARK   42  A    between atoms: _107  and  _109
REMARK   43  A    between atoms: _109  and  _110
REMARK   44  A    between atoms: _109  and  _112
REMARK   45  A    between atoms: _112  and  _113
REMARK   46  A    between atoms: _113  and  _114
REMARK   47  A    between atoms: _119  and  _121
REMARK   48  A    between atoms: _121  and  _122
REMARK   49  A    between atoms: _121  and  _124
REMARK   50  A    between atoms: _124  and  _125
REMARK   51  A    between atoms: _125  and  _126
REMARK   52  A    between atoms: _129  and  _131
REMARK   53  A    between atoms: _131  and  _132
REMARK   54  A    between atoms: _134  and  _136
REMARK   55  A    between atoms: _136  and  _137
REMARK   56  A    between atoms: _136  and  _139
REMARK   57  A    between atoms: _139  and  _140
REMARK   58  A    between atoms: _143  and  _145
REMARK   59  A    between atoms: _145  and  _146
REMARK   60  A    between atoms: _145  and  _148
REMARK   61  A    between atoms: _148  and  _149
REMARK   62  A    between atoms: _154  and  _156
REMARK   63  A    between atoms: _156  and  _157
REMARK   64  A    between atoms: _156  and  _159
REMARK   65  A    between atoms: _159  and  _160
REMARK   66  A    between atoms: _163  and  _165
REMARK   67  A    between atoms: _165  and  _166
REMARK   68  A    between atoms: _165  and  _168
REMARK   69  A    between atoms: _168  and  _169
REMARK   70  A    between atoms: _169  and  _170
REMARK   71  A    between atoms: _170  and  _171
REMARK   72  A    between atoms: _171  and  _172
REMARK   73  A    between atoms: _176  and  _178
REMARK   74  A    between atoms: _178  and  _179
REMARK   75  A    between atoms: _178  and  _181
REMARK   76  A    between atoms: _181  and  _182
REMARK   77  A    between atoms: _187  and  _188
REMARK   78  A    between atoms: _191  and  _192
REMARK   79  A    between atoms: _197  and  _199
REMARK   80  A    between atoms: _199  and  _200
REMARK   81  A    between atoms: _199  and  _202
REMARK   82  A    between atoms: _202  and  _203
REMARK   83  A    between atoms: _206  and  _208
REMARK   84  A    between atoms: _208  and  _209
REMARK   85  A    between atoms: _211  and  _213
REMARK   86  A    between atoms: _213  and  _214
REMARK   87  A    between atoms: _213  and  _216
REMARK   88  A    between atoms: _219  and  _221
REMARK   89  A    between atoms: _221  and  _222
REMARK   90  A    between atoms: _221  and  _224
REMARK   91  A    between atoms: _224  and  _225
REMARK   92  A    between atoms: _227  and  _229
REMARK   93  A    between atoms: _229  and  _230
REMARK   94  A    between atoms: _229  and  _232
REMARK   95  A    between atoms: _232  and  _233
REMARK   96  A    between atoms: _233  and  _234
REMARK   97  A    between atoms: _234  and  _235
REMARK   98  A    between atoms: _244  and  _246
REMARK   99  A    between atoms: _246  and  _247
REMARK  100  A    between atoms: _246  and  _249
REMARK  101  A    between atoms: _249  and  _250
REMARK  102  A    between atoms: _255  and  _257
REMARK  103  A    between atoms: _257  and  _258
REMARK  104  A    between atoms: _257  and  _260
REMARK  105  A    between atoms: _260  and  _261
REMARK  106  A    between atoms: _261  and  _262
REMARK  107  A    between atoms: _262  and  _263
REMARK  108  A    between atoms: _272  and  _274
REMARK  109  A    between atoms: _274  and  _275
REMARK  110  A    between atoms: _274  and  _277
REMARK  111  A    between atoms: _277  and  _278
REMARK  112  A    between atoms: _282  and  _283
REMARK  113  A    between atoms: _288  and  _290
REMARK  114  A    between atoms: _290  and  _291
REMARK  115  A    between atoms: _290  and  _293
REMARK  116  A    between atoms: _293  and  _294
REMARK  117  A    between atoms: _294  and  _295
REMARK  118  A    between atoms: _298  and  _300
REMARK  119  A    between atoms: _300  and  _301
REMARK  120  A    between atoms: _300  and  _303
REMARK  121  A    between atoms: _303  and  _304
REMARK  122  A    between atoms: _304  and  _305
REMARK  123  A    between atoms: _308  and  _310
REMARK  124  A    between atoms: _310  and  _311
REMARK  125  A    between atoms: _310  and  _313
REMARK  126  A    between atoms: _313  and  _314
REMARK  127  A    between atoms: _319  and  _321
REMARK  128  A    between atoms: _321  and  _322
REMARK  129  A    between atoms: _321  and  _324
REMARK  130  A    between atoms: _324  and  _325
REMARK  131  A    between atoms: _328  and  _330
REMARK  132  A    between atoms: _330  and  _331
REMARK  133  A    between atoms: _330  and  _333
REMARK  134  A    between atoms: _333  and  _334
REMARK  135  A    between atoms: _344  and  _346
REMARK  136  A    between atoms: _346  and  _347
REMARK  137  A    between atoms: _346  and  _349
REMARK  138  A    between atoms: _349  and  _350
REMARK  139  A    between atoms: _350  and  _351
REMARK  140  A    between atoms: _353  and  _355
REMARK  141  A    between atoms: _355  and  _356
REMARK  142  A    between atoms: _355  and  _358
REMARK  143  A    between atoms: _358  and  _359
REMARK  144  A    between atoms: _359  and  _360
REMARK  145  A    between atoms: _360  and  _361
REMARK  146  A    between atoms: _361  and  _362
REMARK  147  A    between atoms: _366  and  _368
REMARK  148  A    between atoms: _368  and  _369
REMARK  149  A    between atoms: _372  and  _374
REMARK  150  A    between atoms: _374  and  _375
REMARK  151  A    between atoms: _374  and  _377
REMARK  152  A    between atoms: _377  and  _378
REMARK  153  A    between atoms: _378  and  _379
REMARK  154  A    between atoms: _379  and  _380
REMARK  155  A    between atoms: _389  and  _391
REMARK  156  A    between atoms: _391  and  _392
REMARK  157  A    between atoms: _391  and  _394
REMARK  158  A    between atoms: _394  and  _395
REMARK  159  A    between atoms: _398  and  _400
REMARK  160  A    between atoms: _400  and  _401
REMARK  161  A    between atoms: _400  and  _403
REMARK  162  A    between atoms: _403  and  _404
REMARK  163  A    between atoms: _414  and  _416
REMARK  164  A    between atoms: _416  and  _417
REMARK  165  A    between atoms: _416  and  _419
REMARK  166  A    between atoms: _419  and  _420
REMARK  167  A    between atoms: _426  and  _428
REMARK  168  A    between atoms: _428  and  _429
REMARK  169  A    between atoms: _432  and  _434
REMARK  170  A    between atoms: _434  and  _435
REMARK  171  A    between atoms: _434  and  _437
REMARK  172  A    between atoms: _437  and  _438
REMARK  173  A    between atoms: _440  and  _442
REMARK  174  A    between atoms: _442  and  _443
REMARK  175  A    between atoms: _442  and  _445
REMARK  176  A    between atoms: _445  and  _446
REMARK  177  A    between atoms: _449  and  _451
REMARK  178  A    between atoms: _451  and  _452
REMARK  179  A    between atoms: _455  and  _457
REMARK  180  A    between atoms: _457  and  _458
REMARK  181  A    between atoms: _457  and  _460
REMARK  182  A    between atoms: _460  and  _461
REMARK  183  A    between atoms: _464  and  _466
REMARK  184  A    between atoms: _466  and  _467
REMARK  185  A    between atoms: _466  and  _469
REMARK  186  A    between atoms: _469  and  _470
REMARK  187  A    between atoms: _473  and  _475
REMARK  188  A    between atoms: _475  and  _476
REMARK  189  A    between atoms: _475  and  _478
REMARK  190  A    between atoms: _478  and  _479
REMARK  191  A    between atoms: _479  and  _480
REMARK  192  A    between atoms: _480  and  _481
REMARK  193  A    between atoms: _490  and  _492
REMARK  194  A    between atoms: _492  and  _493
REMARK  195  A    between atoms: _492  and  _495
REMARK  196  A    between atoms: _495  and  _496
REMARK  197  A    between atoms: _496  and  _497
REMARK  198  A    between atoms: _502  and  _504
REMARK  199  A    between atoms: _504  and  _505
REMARK  200  A    between atoms: _504  and  _507
REMARK  201  A    between atoms: _507  and  _508
REMARK  202  A    between atoms: _508  and  _509
REMARK  203  A    between atoms: _509  and  _510
REMARK  204  A    between atoms: _520  and  _521
REMARK  205  A    between atoms: _526  and  _528
REMARK  206  A    between atoms: _528  and  _529
REMARK  207  A    between atoms: _528  and  _531
REMARK  208  A    between atoms: _531  and  _532
REMARK  209  A    between atoms: _535  and  _537
REMARK  210  A    between atoms: _537  and  _538
REMARK  211  A    between atoms: _537  and  _540
REMARK  212  A    between atoms: _540  and  _541
REMARK  213  A    between atoms: _547  and  _548
REMARK  214  A    between atoms: _553  and  _555
REMARK  215  A    between atoms: _555  and  _556
REMARK  216  A    between atoms: _555  and  _558
REMARK  217  A    between atoms: _561  and  _563
REMARK  218  A    between atoms: _563  and  _564
REMARK  219  A    between atoms: _563  and  _566
REMARK  220  A    between atoms: _566  and  _567
REMARK  221  A    between atoms: _572  and  _574
REMARK  222  A    between atoms: _574  and  _575
REMARK  223  A    between atoms: _574  and  _577
REMARK  224  A    between atoms: _577  and  _578
REMARK  225  A    between atoms: _583  and  _585
REMARK  226  A    between atoms: _585  and  _586
REMARK  227  A    between atoms: _585  and  _588
REMARK  228  A    between atoms: _588  and  _589
REMARK  229  A    between atoms: _589  and  _590
REMARK  230  A    between atoms: _592  and  _594
REMARK  231  A    between atoms: _594  and  _595
REMARK  232  A    between atoms: _594  and  _597
REMARK  233  A    between atoms: _597  and  _598
REMARK  234  A    between atoms: _603  and  _604
REMARK  235  A    between atoms: _606  and  _608
REMARK  236  A    between atoms: _608  and  _609
REMARK  237  A    between atoms: _608  and  _611
REMARK  238  A    between atoms: _611  and  _612
REMARK  239  A    between atoms: _612  and  _613
REMARK  240  A    between atoms: _618  and  _620
REMARK  241  A    between atoms: _620  and  _621
REMARK  242  A    between atoms: _620  and  _623
REMARK  243  A    between atoms: _623  and  _624
REMARK  244  A    between atoms: _628  and  _629
REMARK  245  A    between atoms: _634  and  _636
REMARK  246  A    between atoms: _636  and  _637
REMARK  247  A    between atoms: _636  and  _639
REMARK  248  A    between atoms: _639  and  _640
REMARK  249  A    between atoms: _646  and  _648
REMARK  250  A    between atoms: _648  and  _649
REMARK  251  A    between atoms: _648  and  _651
REMARK  252  A    between atoms: _651  and  _652
REMARK  253  A    between atoms: _652  and  _653
REMARK  254  A    between atoms: _658  and  _660
REMARK  255  A    between atoms: _660  and  _661
REMARK  256  A    between atoms: _660  and  _663
REMARK  257  A    between atoms: _663  and  _664
REMARK  258  A    between atoms: _667  and  _669
REMARK  259  A    between atoms: _669  and  _670
REMARK  260  A    between atoms: _669  and  _672
REMARK  261  A    between atoms: _672  and  _673
REMARK  262  A    between atoms: _678  and  _679
REMARK  263  A    between atoms: _681  and  _683
REMARK  264  A    between atoms: _683  and  _684
REMARK  265  A    between atoms: _683  and  _686
REMARK  266  A    between atoms: _686  and  _687
REMARK  267  A    between atoms: _692  and  _693
REMARK  268  A    between atoms: _695  and  _697
REMARK  269  A    between atoms: _697  and  _698
REMARK  270  A    between atoms: _697  and  _700
REMARK  271  A    between atoms: _700  and  _701
REMARK  272  A    between atoms: _701  and  _702
REMARK  273  A    between atoms: _705  and  _707
REMARK  274  A    between atoms: _707  and  _708
REMARK  275  A    between atoms: _707  and  _710
REMARK  276  A    between atoms: _710  and  _711
REMARK  277  A    between atoms: _711  and  _712
REMARK  278  A    between atoms: _712  and  _713
REMARK  279  A    between atoms: _722  and  _724
REMARK  280  A    between atoms: _724  and  _725
REMARK  281  A    between atoms: _724  and  _727
REMARK  282  A    between atoms: _727  and  _728
REMARK  283  A    between atoms: _738  and  _740
REMARK  284  A    between atoms: _740  and  _741
REMARK  285  A    between atoms: _740  and  _743
REMARK  286  A    between atoms: _743  and  _744
REMARK  287  A    between atoms: _747  and  _749
REMARK  288  A    between atoms: _749  and  _750
REMARK  289  A    between atoms: _753  and  _755
REMARK  290  A    between atoms: _755  and  _756
REMARK  291  A    between atoms: _755  and  _758
REMARK  292  A    between atoms: _758  and  _759
REMARK  293  A    between atoms: _762  and  _764
REMARK  294  A    between atoms: _764  and  _765
REMARK  295  A    between atoms: _764  and  _767
REMARK  296  A    between atoms: _767  and  _768
REMARK  297  A    between atoms: _768  and  _769
REMARK  298  A    between atoms: _769  and  _770
REMARK  299  A    between atoms: _770  and  _771
REMARK  300  A    between atoms: _775  and  _777
REMARK  301  A    between atoms: _777  and  _778
REMARK  302  A    between atoms: _777  and  _780
REMARK  303  A    between atoms: _780  and  _781
REMARK                            x       y       z     vdW  Elec       q    Type
REMARK                         _______ _______ _______ _____ _____    ______ ____
ROOT
ATOM      1  CG  LYS A   1     -26.228 -10.159 -22.117  0.00  0.00    -0.000 C 
ENDROOT
BRANCH   1   2
ATOM      2  CB  LYS A   1     -27.031  -9.302 -23.072  0.00  0.00    +0.025 C 
BRANCH   2   3
ATOM      3  CA  LYS A   1     -28.538  -9.568 -23.067  0.00  0.00    +0.133 C 
BRANCH   3   4
ATOM      4  N   LYS A   1     -29.050  -9.517 -24.436  0.00  0.00    -0.239 NA
ATOM      5  H   LYS A   1     -28.375  -9.393 -25.217  0.00  0.00    +0.142 HD
ENDBRANCH   3   4
BRANCH   3   6
ATOM      6  C   LYS A   1     -29.240  -8.518 -22.211  0.00  0.00    +0.224 C 
ATOM      7  O   LYS A   1     -29.676  -8.798 -21.096  0.00  0.00    -0.287 OA
ENDBRANCH   3   6
ENDBRANCH   2   3
ENDBRANCH   1   2
BRANCH   1   8
ATOM      8  CD  LYS A   1     -24.746  -9.809 -22.203  0.00  0.00    -0.024 C 
BRANCH   8   9
ATOM      9  CE  LYS A   1     -23.889 -10.826 -21.474  0.00  0.00    -0.086 C 
BRANCH   9  10
ATOM     10  NZ  LYS A   1     -24.275 -10.964 -20.042  0.00  0.00    +0.380 N 
ATOM     11  HZ1 LYS A   1     -24.165 -10.047 -19.565  0.00  0.00    -0.089 HD
ATOM     12  HZ2 LYS A   1     -23.662 -11.669 -19.585  0.00  0.00    -0.089 HD
ATOM     13  HZ3 LYS A   1     -25.266 -11.272 -19.980  0.00  0.00    -0.089 HD
ENDBRANCH   9  10
ENDBRANCH   8   9
ENDBRANCH   1   8
TORSDOF 7
REMARK  Name = ../refined-set-2016/1y3p/1y3p_pocket.pdb
REMARK  303 active torsions:
REMARK  status: ('A' for Active; 'I' for Inactive)
REMARK    1  A    between atoms: _1  and  _3
REMARK    2  A    between atoms: _3  and  _4
REMARK    3  A    between atoms: _3  and  _6
REMARK    4  A    between atoms: _6  and  _7
REMARK    5  A    between atoms: _12  and  _14
REMARK    6  A    between atoms: _14  and  _15
REMARK    7  A    between atoms: _14  and  _17
REMARK    8  A    between atoms: _17  and  _18
REMARK    9  A    between atoms: _24  and  _26
REMARK   10  A    between atoms: _26  and  _27
REMARK   11  A    between atoms: _26  and  _29
REMARK   12  A    between atoms: _29  and  _30
REMARK   13  A    between atoms: _30  and  _31
REMARK   14  A    between atoms: _31  and  _32
REMARK   15  A    between atoms: _41  and  _43
REMARK   16  A    between atoms: _43  and  _44
REMARK   17  A    between atoms: _43  and  _46
REMARK   18  A    between atoms: _46  and  _47
REMARK   19  A    between atoms: _50  and  _52
REMARK   20  A    between atoms: _52  and  _53
REMARK   21  A    between atoms: _52  and  _55
REMARK   22  A    between atoms: _55  and  _56
REMARK   23  A    between atoms: _56  and  _57
REMARK   24  A    between atoms: _57  and  _58
REMARK   25  A    between atoms: _58  and  _59
REMARK   26  A    between atoms: _63  and  _65
REMARK   27  A    between atoms: _65  and  _66
REMARK   28  A    between atoms: _65  and  _68
REMARK   29  A    between atoms: _68  and  _69
REMARK   30  A    between atoms: _79  and  _81
REMARK   31  A    between atoms: _81  and  _82
REMARK   32  A    between atoms: _81  and  _84
REMARK   33  A    between atoms: _84  and  _85
REMARK   34  A    between atoms: _88  and  _90
REMARK   35  A    between atoms: _90  and  _91
REMARK   36  A    between atoms: _90  and  _93
REMARK   37  A    between atoms: _93  and  _94
REMARK   38  A    between atoms: _99  and  _101
REMARK   39  A    between atoms: _101  and  _102
REMARK   40  A    between atoms: _101  and  _104
REMARK   41  A    between atoms: _104  and  _105
REMARK   42  A    between atoms: _107  and  _109
REMARK   43  A    between atoms: _109  and  _110
REMARK   44  A    between atoms: _109  and  _112
REMARK   45  A    between atoms: _112  and  _113
REMARK   46  A    between atoms: _113  and  _114
REMARK   47  A    between atoms: _119  and  _121
REMARK   48  A    between atoms: _121  and  _122
REMARK   49  A    between atoms: _121  and  _124
REMARK   50  A    between atoms: _124  and  _125
REMARK   51  A    between atoms: _125  and  _126
REMARK   52  A    between atoms: _129  and  _131
REMARK   53  A    between atoms: _131  and  _132
REMARK   54  A    between atoms: _134  and  _136
REMARK   55  A    between atoms: _136  and  _137
REMARK   56  A    between atoms: _136  and  _139
REMARK   57  A    between atoms: _139  and  _140
REMARK   58  A    between atoms: _143  and  _145
REMARK   59  A    between atoms: _145  and  _146
REMARK   60  A    between atoms: _145  and  _148
REMARK   61  A    between atoms: _148  and  _149
REMARK   62  A    between atoms: _154  and  _156
REMARK   63  A    between atoms: _156  and  _157
REMARK   64  A    between atoms: _156  and  _159
REMARK   65  A    between atoms: _159  and  _160
REMARK   66  A    between atoms: _163  and  _165
REMARK   67  A    between atoms: _165  and  _166
REMARK   68  A    between atoms: _165  and  _168
REMARK   69  A    between atoms: _168  and  _169
REMARK   70  A    between atoms: _169  and  _170
REMARK   71  A    between atoms: _170  and  _171
REMARK   72  A    between atoms: _171  and  _172
REMARK   73  A    between atoms: _176  and  _178
REMARK   74  A    between atoms: _178  and  _179
REMARK   75  A    between atoms: _178  and  _181
REMARK   76  A    between atoms: _181  and  _182
REMARK   77  A    between atoms: _187  and  _188
REMARK   78  A    between atoms: _191  and  _192
REMARK   79  A    between atoms: _197  and  _199
REMARK   80  A    between atoms: _199  and  _200
REMARK   81  A    between atoms: _199  and  _202
REMARK   82  A    between atoms: _202  and  _203
REMARK   83  A    between atoms: _206  and  _208
REMARK   84  A    between atoms: _208  and  _209
REMARK   85  A    between atoms: _211  and  _213
REMARK   86  A    between atoms: _213  and  _214
REMARK   87  A    between atoms: _213  and  _216
REMARK   88  A    between atoms: _219  and  _221
REMARK   89  A    between atoms: _221  and  _222
REMARK   90  A    between atoms: _221  and  _224
REMARK   91  A    between atoms: _224  and  _225
REMARK   92  A    between atoms: _227  and  _229
REMARK   93  A    between atoms: _229  and  _230
REMARK   94  A    between atoms: _229  and  _232
REMARK   95  A    between atoms: _232  and  _233
REMARK   96  A    between atoms: _233  and  _234
REMARK   97  A    between atoms: _234  and  _235
REMARK   98  A    between atoms: _244  and  _246
REMARK   99  A    between atoms: _246  and  _247
REMARK  100  A    between atoms: _246  and  _249
REMARK  101  A    between atoms: _249  and  _250
REMARK  102  A    between atoms: _255  and  _257
REMARK  103  A    between atoms: _257  and  _258
REMARK  104  A    between atoms: _257  and  _260
REMARK  105  A    between atoms: _260  and  _261
REMARK  106  A    between atoms: _261  and  _262
REMARK  107  A    between atoms: _262  and  _263
REMARK  108  A    between atoms: _272  and  _274
REMARK  109  A    between atoms: _274  and  _275
REMARK  110  A    between atoms: _274  and  _277
REMARK  111  A    between atoms: _277  and  _278
REMARK  112  A    between atoms: _282  and  _283
REMARK  113  A    between atoms: _288  and  _290
REMARK  114  A    between atoms: _290  and  _291
REMARK  115  A    between atoms: _290  and  _293
REMARK  116  A    between atoms: _293  and  _294
REMARK  117  A    between atoms: _294  and  _295
REMARK  118  A    between atoms: _298  and  _300
REMARK  119  A    between atoms: _300  and  _301
REMARK  120  A    between atoms: _300  and  _303
REMARK  121  A    between atoms: _303  and  _304
REMARK  122  A    between atoms: _304  and  _305
REMARK  123  A    between atoms: _308  and  _310
REMARK  124  A    between atoms: _310  and  _311
REMARK  125  A    between atoms: _310  and  _313
REMARK  126  A    between atoms: _313  and  _314
REMARK  127  A    between atoms: _319  and  _321
REMARK  128  A    between atoms: _321  and  _322
REMARK  129  A    between atoms: _321  and  _324
REMARK  130  A    between atoms: _324  and  _325
REMARK  131  A    between atoms: _328  and  _330
REMARK  132  A    between atoms: _330  and  _331
REMARK  133  A    between atoms: _330  and  _333
REMARK  134  A    between atoms: _333  and  _334
REMARK  135  A    between atoms: _344  and  _346
REMARK  136  A    between atoms: _346  and  _347
REMARK  137  A    between atoms: _346  and  _349
REMARK  138  A    between atoms: _349  and  _350
REMARK  139  A    between atoms: _350  and  _351
REMARK  140  A    between atoms: _353  and  _355
REMARK  141  A    between atoms: _355  and  _356
REMARK  142  A    between atoms: _355  and  _358
REMARK  143  A    between atoms: _358  and  _359
REMARK  144  A    between atoms: _359  and  _360
REMARK  145  A    between atoms: _360  and  _361
REMARK  146  A    between atoms: _361  and  _362
REMARK  147  A    between atoms: _366  and  _368
REMARK  148  A    between atoms: _368  and  _369
REMARK  149  A    between atoms: _372  and  _374
REMARK  150  A    between atoms: _374  and  _375
REMARK  151  A    between atoms: _374  and  _377
REMARK  152  A    between atoms: _377  and  _378
REMARK  153  A    between atoms: _378  and  _379
REMARK  154  A    between atoms: _379  and  _380
REMARK  155  A    between atoms: _389  and  _391
REMARK  156  A    between atoms: _391  and  _392
REMARK  157  A    between atoms: _391  and  _394
REMARK  158  A    between atoms: _394  and  _395
REMARK  159  A    between atoms: _398  and  _400
REMARK  160  A    between atoms: _400  and  _401
REMARK  161  A    between atoms: _400  and  _403
REMARK  162  A    between atoms: _403  and  _404
REMARK  163  A    between atoms: _414  and  _416
REMARK  164  A    between atoms: _416  and  _417
REMARK  165  A    between atoms: _416  and  _419
REMARK  166  A    between atoms: _419  and  _420
REMARK  167  A    between atoms: _426  and  _428
REMARK  168  A    between atoms: _428  and  _429
REMARK  169  A    between atoms: _432  and  _434
REMARK  170  A    between atoms: _434  and  _435
REMARK  171  A    between atoms: _434  and  _437
REMARK  172  A    between atoms: _437  and  _438
REMARK  173  A    between atoms: _440  and  _442
REMARK  174  A    between atoms: _442  and  _443
REMARK  175  A    between atoms: _442  and  _445
REMARK  176  A    between atoms: _445  and  _446
REMARK  177  A    between atoms: _449  and  _451
REMARK  178  A    between atoms: _451  and  _452
REMARK  179  A    between atoms: _455  and  _457
REMARK  180  A    between atoms: _457  and  _458
REMARK  181  A    between atoms: _457  and  _460
REMARK  182  A    between atoms: _460  and  _461
REMARK  183  A    between atoms: _464  and  _466
REMARK  184  A    between atoms: _466  and  _467
REMARK  185  A    between atoms: _466  and  _469
REMARK  186  A    between atoms: _469  and  _470
REMARK  187  A    between atoms: _473  and  _475
REMARK  188  A    between atoms: _475  and  _476
REMARK  189  A    between atoms: _475  and  _478
REMARK  190  A    between atoms: _478  and  _479
REMARK  191  A    between atoms: _479  and  _480
REMARK  192  A    between atoms: _480  and  _481
REMARK  193  A    between atoms: _490  and  _492
REMARK  194  A    between atoms: _492  and  _493
REMARK  195  A    between atoms: _492  and  _495
REMARK  196  A    between atoms: _495  and  _496
REMARK  197  A    between atoms: _496  and  _497
REMARK  198  A    between atoms: _502  and  _504
REMARK  199  A    between atoms: _504  and  _505
REMARK  200  A    between atoms: _504  and  _507
REMARK  201  A    between atoms: _507  and  _508
REMARK  202  A    between atoms: _508  and  _509
REMARK  203  A    between atoms: _509  and  _510
REMARK  204  A    between atoms: _520  and  _521
REMARK  205  A    between atoms: _526  and  _528
REMARK  206  A    between atoms: _528  and  _529
REMARK  207  A    between atoms: _528  and  _531
REMARK  208  A    between atoms: _531  and  _532
REMARK  209  A    between atoms: _535  and  _537
REMARK  210  A    between atoms: _537  and  _538
REMARK  211  A    between atoms: _537  and  _540
REMARK  212  A    between atoms: _540  and  _541
REMARK  213  A    between atoms: _547  and  _548
REMARK  214  A    between atoms: _553  and  _555
REMARK  215  A    between atoms: _555  and  _556
REMARK  216  A    between atoms: _555  and  _558
REMARK  217  A    between atoms: _561  and  _563
REMARK  218  A    between atoms: _563  and  _564
REMARK  219  A    between atoms: _563  and  _566
REMARK  220  A    between atoms: _566  and  _567
REMARK  221  A    between atoms: _572  and  _574
REMARK  222  A    between atoms: _574  and  _575
REMARK  223  A    between atoms: _574  and  _577
REMARK  224  A    between atoms: _577  and  _578
REMARK  225  A    between atoms: _583  and  _585
REMARK  226  A    between atoms: _585  and  _586
REMARK  227  A    between atoms: _585  and  _588
REMARK  228  A    between atoms: _588  and  _589
REMARK  229  A    between atoms: _589  and  _590
REMARK  230  A    between atoms: _592  and  _594
REMARK  231  A    between atoms: _594  and  _595
REMARK  232  A    between atoms: _594  and  _597
REMARK  233  A    between atoms: _597  and  _598
REMARK  234  A    between atoms: _603  and  _604
REMARK  235  A    between atoms: _606  and  _608
REMARK  236  A    between atoms: _608  and  _609
REMARK  237  A    between atoms: _608  and  _611
REMARK  238  A    between atoms: _611  and  _612
REMARK  239  A    between atoms: _612  and  _613
REMARK  240  A    between atoms: _618  and  _620
REMARK  241  A    between atoms: _620  and  _621
REMARK  242  A    between atoms: _620  and  _623
REMARK  243  A    between atoms: _623  and  _624
REMARK  244  A    between atoms: _628  and  _629
REMARK  245  A    between atoms: _634  and  _636
REMARK  246  A    between atoms: _636  and  _637
REMARK  247  A    between atoms: _636  and  _639
REMARK  248  A    between atoms: _639  and  _640
REMARK  249  A    between atoms: _646  and  _648
REMARK  250  A    between atoms: _648  and  _649
REMARK  251  A    between atoms: _648  and  _651
REMARK  252  A    between atoms: _651  and  _652
REMARK  253  A    between atoms: _652  and  _653
REMARK  254  A    between atoms: _658  and  _660
REMARK  255  A    between atoms: _660  and  _661
REMARK  256  A    between atoms: _660  and  _663
REMARK  257  A    between atoms: _663  and  _664
REMARK  258  A    between atoms: _667  and  _669
REMARK  259  A    between atoms: _669  and  _670
REMARK  260  A    between atoms: _669  and  _672
REMARK  261  A    between atoms: _672  and  _673
REMARK  262  A    between atoms: _678  and  _679
REMARK  263  A    between atoms: _681  and  _683
REMARK  264  A    between atoms: _683  and  _684
REMARK  265  A    between atoms: _683  and  _686
REMARK  266  A    between atoms: _686  and  _687
REMARK  267  A    between atoms: _692  and  _693
REMARK  268  A    between atoms: _695  and  _697
REMARK  269  A    between atoms: _697  and  _698
REMARK  270  A    between atoms: _697  and  _700
REMARK  271  A    between atoms: _700  and  _701
REMARK  272  A    between atoms: _701  and  _702
REMARK  273  A    between atoms: _705  and  _707
REMARK  274  A    between atoms: _707  and  _708
REMARK  275  A    between atoms: _707  and  _710
REMARK  276  A    between atoms: _710  and  _711
REMARK  277  A    between atoms: _711  and  _712
REMARK  278  A    between atoms: _712  and  _713
REMARK  279  A    between atoms: _722  and  _724
REMARK  280  A    between atoms: _724  and  _725
REMARK  281  A    between atoms: _724  and  _727
REMARK  282  A    between atoms: _727  and  _728
REMARK  283  A    between atoms: _738  and  _740
REMARK  284  A    between atoms: _740  and  _741
REMARK  285  A    between atoms: _740  and  _743
REMARK  286  A    between atoms: _743  and  _744
REMARK  287  A    between atoms: _747  and  _749
REMARK  288  A    between atoms: _749  and  _750
REMARK  289  A    between atoms: _753  and  _755
REMARK  290  A    between atoms: _755  and  _756
REMARK  291  A    between atoms: _755  and  _758
REMARK  292  A    between atoms: _758  and  _759
REMARK  293  A    between atoms: _762  and  _764
REMARK  294  A    between atoms: _764  and  _765
REMARK  295  A    between atoms: _764  and  _767
REMARK  296  A    between atoms: _767  and  _768
REMARK  297  A    between atoms: _768  and  _769
REMARK  298  A    between atoms: _769  and  _770
REMARK  299  A    between atoms: _770  and  _771
REMARK  300  A    between atoms: _775  and  _777
REMARK  301  A    between atoms: _777  and  _778
REMARK  302  A    between atoms: _777  and  _780
REMARK  303  A    between atoms: _780  and  _781
REMARK                            x       y       z     vdW  Elec       q    Type
REMARK                         _______ _______ _______ _____ _____    ______ ____
ROOT
ATOM      1  CB  PHE A   1     -30.508  -7.636 -17.617  0.00  0.00    +0.051 C 
ENDROOT
BRANCH   1   2
ATOM      2  CG  PHE A   1     -30.213  -7.063 -16.260  0.00  0.00    -0.020 A 
ATOM      3  CD2 PHE A   1     -29.192  -7.594 -15.477  0.00  0.00    -0.004 A 
ATOM      4  CE2 PHE A   1     -28.939  -7.094 -14.199  0.00  0.00    -0.000 A 
ATOM      5  CZ  PHE A   1     -29.711  -6.051 -13.695  0.00  0.00    -0.000 A 
ATOM      6  CE1 PHE A   1     -30.731  -5.511 -14.469  0.00  0.00    -0.000 A 
ATOM      7  CD1 PHE A   1     -30.977  -6.018 -15.746  0.00  0.00    -0.004 A 
ENDBRANCH   1   2
BRANCH   1   8
ATOM      8  CA  PHE A   1     -31.697  -8.610 -17.630  0.00  0.00    +0.137 C 
BRANCH   8   9
ATOM      9  N   PHE A   1     -31.864  -9.185 -18.955  0.00  0.00    -0.239 NA
ATOM     10  H   PHE A   1     -31.256  -8.862 -19.735  0.00  0.00    +0.142 HD
ENDBRANCH   8   9
BRANCH   8  11
ATOM     11  C   PHE A   1     -32.973  -7.888 -17.210  0.00  0.00    +0.224 C 
ATOM     12  O   PHE A   1     -33.452  -8.059 -16.090  0.00  0.00    -0.287 OA
ENDBRANCH   8  11
ENDBRANCH   1   8
TORSDOF 4
REMARK  Name = ../refined-set-2016/1y3p/1y3p_pocket.pdb
REMARK  303 active torsions:
REMARK  status: ('A' for Active; 'I' for Inactive)
REMARK    1  A    between atoms: _1  and  _3
REMARK    2  A    between atoms: _3  and  _4
REMARK    3  A    between atoms: _3  and  _6
REMARK    4  A    between atoms: _6  and  _7
REMARK    5  A    between atoms: _12  and  _14
REMARK    6  A    between atoms: _14  and  _15
REMARK    7  A    between atoms: _14  and  _17
REMARK    8  A    between atoms: _17  and  _18
REMARK    9  A    between atoms: _24  and  _26
REMARK   10  A    between atoms: _26  and  _27
REMARK   11  A    between atoms: _26  and  _29
REMARK   12  A    between atoms: _29  and  _30
REMARK   13  A    between atoms: _30  and  _31
REMARK   14  A    between atoms: _31  and  _32
REMARK   15  A    between atoms: _41  and  _43
REMARK   16  A    between atoms: _43  and  _44
REMARK   17  A    between atoms: _43  and  _46
REMARK   18  A    between atoms: _46  and  _47
REMARK   19  A    between atoms: _50  and  _52
REMARK   20  A    between atoms: _52  and  _53
REMARK   21  A    between atoms: _52  and  _55
REMARK   22  A    between atoms: _55  and  _56
REMARK   23  A    between atoms: _56  and  _57
REMARK   24  A    between atoms: _57  and  _58
REMARK   25  A    between atoms: _58  and  _59
REMARK   26  A    between atoms: _63  and  _65
REMARK   27  A    between atoms: _65  and  _66
REMARK   28  A    between atoms: _65  and  _68
REMARK   29  A    between atoms: _68  and  _69
REMARK   30  A    between atoms: _79  and  _81
REMARK   31  A    between atoms: _81  and  _82
REMARK   32  A    between atoms: _81  and  _84
REMARK   33  A    between atoms: _84  and  _85
REMARK   34  A    between atoms: _88  and  _90
REMARK   35  A    between atoms: _90  and  _91
REMARK   36  A    between atoms: _90  and  _93
REMARK   37  A    between atoms: _93  and  _94
REMARK   38  A    between atoms: _99  and  _101
REMARK   39  A    between atoms: _101  and  _102
REMARK   40  A    between atoms: _101  and  _104
REMARK   41  A    between atoms: _104  and  _105
REMARK   42  A    between atoms: _107  and  _109
REMARK   43  A    between atoms: _109  and  _110
REMARK   44  A    between atoms: _109  and  _112
REMARK   45  A    between atoms: _112  and  _113
REMARK   46  A    between atoms: _113  and  _114
REMARK   47  A    between atoms: _119  and  _121
REMARK   48  A    between atoms: _121  and  _122
REMARK   49  A    between atoms: _121  and  _124
REMARK   50  A    between atoms: _124  and  _125
REMARK   51  A    between atoms: _125  and  _126
REMARK   52  A    between atoms: _129  and  _131
REMARK   53  A    between atoms: _131  and  _132
REMARK   54  A    between atoms: _134  and  _136
REMARK   55  A    between atoms: _136  and  _137
REMARK   56  A    between atoms: _136  and  _139
REMARK   57  A    between atoms: _139  and  _140
REMARK   58  A    between atoms: _143  and  _145
REMARK   59  A    between atoms: _145  and  _146
REMARK   60  A    between atoms: _145  and  _148
REMARK   61  A    between atoms: _148  and  _149
REMARK   62  A    between atoms: _154  and  _156
REMARK   63  A    between atoms: _156  and  _157
REMARK   64  A    between atoms: _156  and  _159
REMARK   65  A    between atoms: _159  and  _160
REMARK   66  A    between atoms: _163  and  _165
REMARK   67  A    between atoms: _165  and  _166
REMARK   68  A    between atoms: _165  and  _168
REMARK   69  A    between atoms: _168  and  _169
REMARK   70  A    between atoms: _169  and  _170
REMARK   71  A    between atoms: _170  and  _171
REMARK   72  A    between atoms: _171  and  _172
REMARK   73  A    between atoms: _176  and  _178
REMARK   74  A    between atoms: _178  and  _179
REMARK   75  A    between atoms: _178  and  _181
REMARK   76  A    between atoms: _181  and  _182
REMARK   77  A    between atoms: _187  and  _188
REMARK   78  A    between atoms: _191  and  _192
REMARK   79  A    between atoms: _197  and  _199
REMARK   80  A    between atoms: _199  and  _200
REMARK   81  A    between atoms: _199  and  _202
REMARK   82  A    between atoms: _202  and  _203
REMARK   83  A    between atoms: _206  and  _208
REMARK   84  A    between atoms: _208  and  _209
REMARK   85  A    between atoms: _211  and  _213
REMARK   86  A    between atoms: _213  and  _214
REMARK   87  A    between atoms: _213  and  _216
REMARK   88  A    between atoms: _219  and  _221
REMARK   89  A    between atoms: _221  and  _222
REMARK   90  A    between atoms: _221  and  _224
REMARK   91  A    between atoms: _224  and  _225
REMARK   92  A    between atoms: _227  and  _229
REMARK   93  A    between atoms: _229  and  _230
REMARK   94  A    between atoms: _229  and  _232
REMARK   95  A    between atoms: _232  and  _233
REMARK   96  A    between atoms: _233  and  _234
REMARK   97  A    between atoms: _234  and  _235
REMARK   98  A    between atoms: _244  and  _246
REMARK   99  A    between atoms: _246  and  _247
REMARK  100  A    between atoms: _246  and  _249
REMARK  101  A    between atoms: _249  and  _250
REMARK  102  A    between atoms: _255  and  _257
REMARK  103  A    between atoms: _257  and  _258
REMARK  104  A    between atoms: _257  and  _260
REMARK  105  A    between atoms: _260  and  _261
REMARK  106  A    between atoms: _261  and  _262
REMARK  107  A    between atoms: _262  and  _263
REMARK  108  A    between atoms: _272  and  _274
REMARK  109  A    between atoms: _274  and  _275
REMARK  110  A    between atoms: _274  and  _277
REMARK  111  A    between atoms: _277  and  _278
REMARK  112  A    between atoms: _282  and  _283
REMARK  113  A    between atoms: _288  and  _290
REMARK  114  A    between atoms: _290  and  _291
REMARK  115  A    between atoms: _290  and  _293
REMARK  116  A    between atoms: _293  and  _294
REMARK  117  A    between atoms: _294  and  _295
REMARK  118  A    between atoms: _298  and  _300
REMARK  119  A    between atoms: _300  and  _301
REMARK  120  A    between atoms: _300  and  _303
REMARK  121  A    between atoms: _303  and  _304
REMARK  122  A    between atoms: _304  and  _305
REMARK  123  A    between atoms: _308  and  _310
REMARK  124  A    between atoms: _310  and  _311
REMARK  125  A    between atoms: _310  and  _313
REMARK  126  A    between atoms: _313  and  _314
REMARK  127  A    between atoms: _319  and  _321
REMARK  128  A    between atoms: _321  and  _322
REMARK  129  A    between atoms: _321  and  _324
REMARK  130  A    between atoms: _324  and  _325
REMARK  131  A    between atoms: _328  and  _330
REMARK  132  A    between atoms: _330  and  _331
REMARK  133  A    between atoms: _330  and  _333
REMARK  134  A    between atoms: _333  and  _334
REMARK  135  A    between atoms: _344  and  _346
REMARK  136  A    between atoms: _346  and  _347
REMARK  137  A    between atoms: _346  and  _349
REMARK  138  A    between atoms: _349  and  _350
REMARK  139  A    between atoms: _350  and  _351
REMARK  140  A    between atoms: _353  and  _355
REMARK  141  A    between atoms: _355  and  _356
REMARK  142  A    between atoms: _355  and  _358
REMARK  143  A    between atoms: _358  and  _359
REMARK  144  A    between atoms: _359  and  _360
REMARK  145  A    between atoms: _360  and  _361
REMARK  146  A    between atoms: _361  and  _362
REMARK  147  A    between atoms: _366  and  _368
REMARK  148  A    between atoms: _368  and  _369
REMARK  149  A    between atoms: _372  and  _374
REMARK  150  A    between atoms: _374  and  _375
REMARK  151  A    between atoms: _374  and  _377
REMARK  152  A    between atoms: _377  and  _378
REMARK  153  A    between atoms: _378  and  _379
REMARK  154  A    between atoms: _379  and  _380
REMARK  155  A    between atoms: _389  and  _391
REMARK  156  A    between atoms: _391  and  _392
REMARK  157  A    between atoms: _391  and  _394
REMARK  158  A    between atoms: _394  and  _395
REMARK  159  A    between atoms: _398  and  _400
REMARK  160  A    between atoms: _400  and  _401
REMARK  161  A    between atoms: _400  and  _403
REMARK  162  A    between atoms: _403  and  _404
REMARK  163  A    between atoms: _414  and  _416
REMARK  164  A    between atoms: _416  and  _417
REMARK  165  A    between atoms: _416  and  _419
REMARK  166  A    between atoms: _419  and  _420
REMARK  167  A    between atoms: _426  and  _428
REMARK  168  A    between atoms: _428  and  _429
REMARK  169  A    between atoms: _432  and  _434
REMARK  170  A    between atoms: _434  and  _435
REMARK  171  A    between atoms: _434  and  _437
REMARK  172  A    between atoms: _437  and  _438
REMARK  173  A    between atoms: _440  and  _442
REMARK  174  A    between atoms: _442  and  _443
REMARK  175  A    between atoms: _442  and  _445
REMARK  176  A    between atoms: _445  and  _446
REMARK  177  A    between atoms: _449  and  _451
REMARK  178  A    between atoms: _451  and  _452
REMARK  179  A    between atoms: _455  and  _457
REMARK  180  A    between atoms: _457  and  _458
REMARK  181  A    between atoms: _457  and  _460
REMARK  182  A    between atoms: _460  and  _461
REMARK  183  A    between atoms: _464  and  _466
REMARK  184  A    between atoms: _466  and  _467
REMARK  185  A    between atoms: _466  and  _469
REMARK  186  A    between atoms: _469  and  _470
REMARK  187  A    between atoms: _473  and  _475
REMARK  188  A    between atoms: _475  and  _476
REMARK  189  A    between atoms: _475  and  _478
REMARK  190  A    between atoms: _478  and  _479
REMARK  191  A    between atoms: _479  and  _480
REMARK  192  A    between atoms: _480  and  _481
REMARK  193  A    between atoms: _490  and  _492
REMARK  194  A    between atoms: _492  and  _493
REMARK  195  A    between atoms: _492  and  _495
REMARK  196  A    between atoms: _495  and  _496
REMARK  197  A    between atoms: _496  and  _497
REMARK  198  A    between atoms: _502  and  _504
REMARK  199  A    between atoms: _504  and  _505
REMARK  200  A    between atoms: _504  and  _507
REMARK  201  A    between atoms: _507  and  _508
REMARK  202  A    between atoms: _508  and  _509
REMARK  203  A    between atoms: _509  and  _510
REMARK  204  A    between atoms: _520  and  _521
REMARK  205  A    between atoms: _526  and  _528
REMARK  206  A    between atoms: _528  and  _529
REMARK  207  A    between atoms: _528  and  _531
REMARK  208  A    between atoms: _531  and  _532
REMARK  209  A    between atoms: _535  and  _537
REMARK  210  A    between atoms: _537  and  _538
REMARK  211  A    between atoms: _537  and  _540
REMARK  212  A    between atoms: _540  and  _541
REMARK  213  A    between atoms: _547  and  _548
REMARK  214  A    between atoms: _553  and  _555
REMARK  215  A    between atoms: _555  and  _556
REMARK  216  A    between atoms: _555  and  _558
REMARK  217  A    between atoms: _561  and  _563
REMARK  218  A    between atoms: _563  and  _564
REMARK  219  A    between atoms: _563  and  _566
REMARK  220  A    between atoms: _566  and  _567
REMARK  221  A    between atoms: _572  and  _574
REMARK  222  A    between atoms: _574  and  _575
REMARK  223  A    between atoms: _574  and  _577
REMARK  224  A    between atoms: _577  and  _578
REMARK  225  A    between atoms: _583  and  _585
REMARK  226  A    between atoms: _585  and  _586
REMARK  227  A    between atoms: _585  and  _588
REMARK  228  A    between atoms: _588  and  _589
REMARK  229  A    between atoms: _589  and  _590
REMARK  230  A    between atoms: _592  and  _594
REMARK  231  A    between atoms: _594  and  _595
REMARK  232  A    between atoms: _594  and  _597
REMARK  233  A    between atoms: _597  and  _598
REMARK  234  A    between atoms: _603  and  _604
REMARK  235  A    between atoms: _606  and  _608
REMARK  236  A    between atoms: _608  and  _609
REMARK  237  A    between atoms: _608  and  _611
REMARK  238  A    between atoms: _611  and  _612
REMARK  239  A    between atoms: _612  and  _613
REMARK  240  A    between atoms: _618  and  _620
REMARK  241  A    between atoms: _620  and  _621
REMARK  242  A    between atoms: _620  and  _623
REMARK  243  A    between atoms: _623  and  _624
REMARK  244  A    between atoms: _628  and  _629
REMARK  245  A    between atoms: _634  and  _636
REMARK  246  A    between atoms: _636  and  _637
REMARK  247  A    between atoms: _636  and  _639
REMARK  248  A    between atoms: _639  and  _640
REMARK  249  A    between atoms: _646  and  _648
REMARK  250  A    between atoms: _648  and  _649
REMARK  251  A    between atoms: _648  and  _651
REMARK  252  A    between atoms: _651  and  _652
REMARK  253  A    between atoms: _652  and  _653
REMARK  254  A    between atoms: _658  and  _660
REMARK  255  A    between atoms: _660  and  _661
REMARK  256  A    between atoms: _660  and  _663
REMARK  257  A    between atoms: _663  and  _664
REMARK  258  A    between atoms: _667  and  _669
REMARK  259  A    between atoms: _669  and  _670
REMARK  260  A    between atoms: _669  and  _672
REMARK  261  A    between atoms: _672  and  _673
REMARK  262  A    between atoms: _678  and  _679
REMARK  263  A    between atoms: _681  and  _683
REMARK  264  A    between atoms: _683  and  _684
REMARK  265  A    between atoms: _683  and  _686
REMARK  266  A    between atoms: _686  and  _687
REMARK  267  A    between atoms: _692  and  _693
REMARK  268  A    between atoms: _695  and  _697
REMARK  269  A    between atoms: _697  and  _698
REMARK  270  A    between atoms: _697  and  _700
REMARK  271  A    between atoms: _700  and  _701
REMARK  272  A    between atoms: _701  and  _702
REMARK  273  A    between atoms: _705  and  _707
REMARK  274  A    between atoms: _707  and  _708
REMARK  275  A    between atoms: _707  and  _710
REMARK  276  A    between atoms: _710  and  _711
REMARK  277  A    between atoms: _711  and  _712
REMARK  278  A    between atoms: _712  and  _713
REMARK  279  A    between atoms: _722  and  _724
REMARK  280  A    between atoms: _724  and  _725
REMARK  281  A    between atoms: _724  and  _727
REMARK  282  A    between atoms: _727  and  _728
REMARK  283  A    between atoms: _738  and  _740
REMARK  284  A    between atoms: _740  and  _741
REMARK  285  A    between atoms: _740  and  _743
REMARK  286  A    between atoms: _743  and  _744
REMARK  287  A    between atoms: _747  and  _749
REMARK  288  A    between atoms: _749  and  _750
REMARK  289  A    between atoms: _753  and  _755
REMARK  290  A    between atoms: _755  and  _756
REMARK  291  A    between atoms: _755  and  _758
REMARK  292  A    between atoms: _758  and  _759
REMARK  293  A    between atoms: _762  and  _764
REMARK  294  A    between atoms: _764  and  _765
REMARK  295  A    between atoms: _764  and  _767
REMARK  296  A    between atoms: _767  and  _768
REMARK  297  A    between atoms: _768  and  _769
REMARK  298  A    between atoms: _769  and  _770
REMARK  299  A    between atoms: _770  and  _771
REMARK  300  A    between atoms: _775  and  _777
REMARK  301  A    between atoms: _777  and  _778
REMARK  302  A    between atoms: _777  and  _780
REMARK  303  A    between atoms: _780  and  _781
REMARK                            x       y       z     vdW  Elec       q    Type
REMARK                         _______ _______ _______ _____ _____    ______ ____
ROOT
ATOM      1  O   HOH     1     -18.733  -9.958 -15.857  0.00  0.00    +0.000 OA
ENDROOT
TORSDOF 0
REMARK  Name = ../refined-set-2016/1y3p/1y3p_pocket.pdb
REMARK  303 active torsions:
REMARK  status: ('A' for Active; 'I' for Inactive)
REMARK    1  A    between atoms: _1  and  _3
REMARK    2  A    between atoms: _3  and  _4
REMARK    3  A    between atoms: _3  and  _6
REMARK    4  A    between atoms: _6  and  _7
REMARK    5  A    between atoms: _12  and  _14
REMARK    6  A    between atoms: _14  and  _15
REMARK    7  A    between atoms: _14  and  _17
REMARK    8  A    between atoms: _17  and  _18
REMARK    9  A    between atoms: _24  and  _26
REMARK   10  A    between atoms: _26  and  _27
REMARK   11  A    between atoms: _26  and  _29
REMARK   12  A    between atoms: _29  and  _30
REMARK   13  A    between atoms: _30  and  _31
REMARK   14  A    between atoms: _31  and  _32
REMARK   15  A    between atoms: _41  and  _43
REMARK   16  A    between atoms: _43  and  _44
REMARK   17  A    between atoms: _43  and  _46
REMARK   18  A    between atoms: _46  and  _47
REMARK   19  A    between atoms: _50  and  _52
REMARK   20  A    between atoms: _52  and  _53
REMARK   21  A    between atoms: _52  and  _55
REMARK   22  A    between atoms: _55  and  _56
REMARK   23  A    between atoms: _56  and  _57
REMARK   24  A    between atoms: _57  and  _58
REMARK   25  A    between atoms: _58  and  _59
REMARK   26  A    between atoms: _63  and  _65
REMARK   27  A    between atoms: _65  and  _66
REMARK   28  A    between atoms: _65  and  _68
REMARK   29  A    between atoms: _68  and  _69
REMARK   30  A    between atoms: _79  and  _81
REMARK   31  A    between atoms: _81  and  _82
REMARK   32  A    between atoms: _81  and  _84
REMARK   33  A    between atoms: _84  and  _85
REMARK   34  A    between atoms: _88  and  _90
REMARK   35  A    between atoms: _90  and  _91
REMARK   36  A    between atoms: _90  and  _93
REMARK   37  A    between atoms: _93  and  _94
REMARK   38  A    between atoms: _99  and  _101
REMARK   39  A    between atoms: _101  and  _102
REMARK   40  A    between atoms: _101  and  _104
REMARK   41  A    between atoms: _104  and  _105
REMARK   42  A    between atoms: _107  and  _109
REMARK   43  A    between atoms: _109  and  _110
REMARK   44  A    between atoms: _109  and  _112
REMARK   45  A    between atoms: _112  and  _113
REMARK   46  A    between atoms: _113  and  _114
REMARK   47  A    between atoms: _119  and  _121
REMARK   48  A    between atoms: _121  and  _122
REMARK   49  A    between atoms: _121  and  _124
REMARK   50  A    between atoms: _124  and  _125
REMARK   51  A    between atoms: _125  and  _126
REMARK   52  A    between atoms: _129  and  _131
REMARK   53  A    between atoms: _131  and  _132
REMARK   54  A    between atoms: _134  and  _136
REMARK   55  A    between atoms: _136  and  _137
REMARK   56  A    between atoms: _136  and  _139
REMARK   57  A    between atoms: _139  and  _140
REMARK   58  A    between atoms: _143  and  _145
REMARK   59  A    between atoms: _145  and  _146
REMARK   60  A    between atoms: _145  and  _148
REMARK   61  A    between atoms: _148  and  _149
REMARK   62  A    between atoms: _154  and  _156
REMARK   63  A    between atoms: _156  and  _157
REMARK   64  A    between atoms: _156  and  _159
REMARK   65  A    between atoms: _159  and  _160
REMARK   66  A    between atoms: _163  and  _165
REMARK   67  A    between atoms: _165  and  _166
REMARK   68  A    between atoms: _165  and  _168
REMARK   69  A    between atoms: _168  and  _169
REMARK   70  A    between atoms: _169  and  _170
REMARK   71  A    between atoms: _170  and  _171
REMARK   72  A    between atoms: _171  and  _172
REMARK   73  A    between atoms: _176  and  _178
REMARK   74  A    between atoms: _178  and  _179
REMARK   75  A    between atoms: _178  and  _181
REMARK   76  A    between atoms: _181  and  _182
REMARK   77  A    between atoms: _187  and  _188
REMARK   78  A    between atoms: _191  and  _192
REMARK   79  A    between atoms: _197  and  _199
REMARK   80  A    between atoms: _199  and  _200
REMARK   81  A    between atoms: _199  and  _202
REMARK   82  A    between atoms: _202  and  _203
REMARK   83  A    between atoms: _206  and  _208
REMARK   84  A    between atoms: _208  and  _209
REMARK   85  A    between atoms: _211  and  _213
REMARK   86  A    between atoms: _213  and  _214
REMARK   87  A    between atoms: _213  and  _216
REMARK   88  A    between atoms: _219  and  _221
REMARK   89  A    between atoms: _221  and  _222
REMARK   90  A    between atoms: _221  and  _224
REMARK   91  A    between atoms: _224  and  _225
REMARK   92  A    between atoms: _227  and  _229
REMARK   93  A    between atoms: _229  and  _230
REMARK   94  A    between atoms: _229  and  _232
REMARK   95  A    between atoms: _232  and  _233
REMARK   96  A    between atoms: _233  and  _234
REMARK   97  A    between atoms: _234  and  _235
REMARK   98  A    between atoms: _244  and  _246
REMARK   99  A    between atoms: _246  and  _247
REMARK  100  A    between atoms: _246  and  _249
REMARK  101  A    between atoms: _249  and  _250
REMARK  102  A    between atoms: _255  and  _257
REMARK  103  A    between atoms: _257  and  _258
REMARK  104  A    between atoms: _257  and  _260
REMARK  105  A    between atoms: _260  and  _261
REMARK  106  A    between atoms: _261  and  _262
REMARK  107  A    between atoms: _262  and  _263
REMARK  108  A    between atoms: _272  and  _274
REMARK  109  A    between atoms: _274  and  _275
REMARK  110  A    between atoms: _274  and  _277
REMARK  111  A    between atoms: _277  and  _278
REMARK  112  A    between atoms: _282  and  _283
REMARK  113  A    between atoms: _288  and  _290
REMARK  114  A    between atoms: _290  and  _291
REMARK  115  A    between atoms: _290  and  _293
REMARK  116  A    between atoms: _293  and  _294
REMARK  117  A    between atoms: _294  and  _295
REMARK  118  A    between atoms: _298  and  _300
REMARK  119  A    between atoms: _300  and  _301
REMARK  120  A    between atoms: _300  and  _303
REMARK  121  A    between atoms: _303  and  _304
REMARK  122  A    between atoms: _304  and  _305
REMARK  123  A    between atoms: _308  and  _310
REMARK  124  A    between atoms: _310  and  _311
REMARK  125  A    between atoms: _310  and  _313
REMARK  126  A    between atoms: _313  and  _314
REMARK  127  A    between atoms: _319  and  _321
REMARK  128  A    between atoms: _321  and  _322
REMARK  129  A    between atoms: _321  and  _324
REMARK  130  A    between atoms: _324  and  _325
REMARK  131  A    between atoms: _328  and  _330
REMARK  132  A    between atoms: _330  and  _331
REMARK  133  A    between atoms: _330  and  _333
REMARK  134  A    between atoms: _333  and  _334
REMARK  135  A    between atoms: _344  and  _346
REMARK  136  A    between atoms: _346  and  _347
REMARK  137  A    between atoms: _346  and  _349
REMARK  138  A    between atoms: _349  and  _350
REMARK  139  A    between atoms: _350  and  _351
REMARK  140  A    between atoms: _353  and  _355
REMARK  141  A    between atoms: _355  and  _356
REMARK  142  A    between atoms: _355  and  _358
REMARK  143  A    between atoms: _358  and  _359
REMARK  144  A    between atoms: _359  and  _360
REMARK  145  A    between atoms: _360  and  _361
REMARK  146  A    between atoms: _361  and  _362
REMARK  147  A    between atoms: _366  and  _368
REMARK  148  A    between atoms: _368  and  _369
REMARK  149  A    between atoms: _372  and  _374
REMARK  150  A    between atoms: _374  and  _375
REMARK  151  A    between atoms: _374  and  _377
REMARK  152  A    between atoms: _377  and  _378
REMARK  153  A    between atoms: _378  and  _379
REMARK  154  A    between atoms: _379  and  _380
REMARK  155  A    between atoms: _389  and  _391
REMARK  156  A    between atoms: _391  and  _392
REMARK  157  A    between atoms: _391  and  _394
REMARK  158  A    between atoms: _394  and  _395
REMARK  159  A    between atoms: _398  and  _400
REMARK  160  A    between atoms: _400  and  _401
REMARK  161  A    between atoms: _400  and  _403
REMARK  162  A    between atoms: _403  and  _404
REMARK  163  A    between atoms: _414  and  _416
REMARK  164  A    between atoms: _416  and  _417
REMARK  165  A    between atoms: _416  and  _419
REMARK  166  A    between atoms: _419  and  _420
REMARK  167  A    between atoms: _426  and  _428
REMARK  168  A    between atoms: _428  and  _429
REMARK  169  A    between atoms: _432  and  _434
REMARK  170  A    between atoms: _434  and  _435
REMARK  171  A    between atoms: _434  and  _437
REMARK  172  A    between atoms: _437  and  _438
REMARK  173  A    between atoms: _440  and  _442
REMARK  174  A    between atoms: _442  and  _443
REMARK  175  A    between atoms: _442  and  _445
REMARK  176  A    between atoms: _445  and  _446
REMARK  177  A    between atoms: _449  and  _451
REMARK  178  A    between atoms: _451  and  _452
REMARK  179  A    between atoms: _455  and  _457
REMARK  180  A    between atoms: _457  and  _458
REMARK  181  A    between atoms: _457  and  _460
REMARK  182  A    between atoms: _460  and  _461
REMARK  183  A    between atoms: _464  and  _466
REMARK  184  A    between atoms: _466  and  _467
REMARK  185  A    between atoms: _466  and  _469
REMARK  186  A    between atoms: _469  and  _470
REMARK  187  A    between atoms: _473  and  _475
REMARK  188  A    between atoms: _475  and  _476
REMARK  189  A    between atoms: _475  and  _478
REMARK  190  A    between atoms: _478  and  _479
REMARK  191  A    between atoms: _479  and  _480
REMARK  192  A    between atoms: _480  and  _481
REMARK  193  A    between atoms: _490  and  _492
REMARK  194  A    between atoms: _492  and  _493
REMARK  195  A    between atoms: _492  and  _495
REMARK  196  A    between atoms: _495  and  _496
REMARK  197  A    between atoms: _496  and  _497
REMARK  198  A    between atoms: _502  and  _504
REMARK  199  A    between atoms: _504  and  _505
REMARK  200  A    between atoms: _504  and  _507
REMARK  201  A    between atoms: _507  and  _508
REMARK  202  A    between atoms: _508  and  _509
REMARK  203  A    between atoms: _509  and  _510
REMARK  204  A    between atoms: _520  and  _521
REMARK  205  A    between atoms: _526  and  _528
REMARK  206  A    between atoms: _528  and  _529
REMARK  207  A    between atoms: _528  and  _531
REMARK  208  A    between atoms: _531  and  _532
REMARK  209  A    between atoms: _535  and  _537
REMARK  210  A    between atoms: _537  and  _538
REMARK  211  A    between atoms: _537  and  _540
REMARK  212  A    between atoms: _540  and  _541
REMARK  213  A    between atoms: _547  and  _548
REMARK  214  A    between atoms: _553  and  _555
REMARK  215  A    between atoms: _555  and  _556
REMARK  216  A    between atoms: _555  and  _558
REMARK  217  A    between atoms: _561  and  _563
REMARK  218  A    between atoms: _563  and  _564
REMARK  219  A    between atoms: _563  and  _566
REMARK  220  A    between atoms: _566  and  _567
REMARK  221  A    between atoms: _572  and  _574
REMARK  222  A    between atoms: _574  and  _575
REMARK  223  A    between atoms: _574  and  _577
REMARK  224  A    between atoms: _577  and  _578
REMARK  225  A    between atoms: _583  and  _585
REMARK  226  A    between atoms: _585  and  _586
REMARK  227  A    between atoms: _585  and  _588
REMARK  228  A    between atoms: _588  and  _589
REMARK  229  A    between atoms: _589  and  _590
REMARK  230  A    between atoms: _592  and  _594
REMARK  231  A    between atoms: _594  and  _595
REMARK  232  A    between atoms: _594  and  _597
REMARK  233  A    between atoms: _597  and  _598
REMARK  234  A    between atoms: _603  and  _604
REMARK  235  A    between atoms: _606  and  _608
REMARK  236  A    between atoms: _608  and  _609
REMARK  237  A    between atoms: _608  and  _611
REMARK  238  A    between atoms: _611  and  _612
REMARK  239  A    between atoms: _612  and  _613
REMARK  240  A    between atoms: _618  and  _620
REMARK  241  A    between atoms: _620  and  _621
REMARK  242  A    between atoms: _620  and  _623
REMARK  243  A    between atoms: _623  and  _624
REMARK  244  A    between atoms: _628  and  _629
REMARK  245  A    between atoms: _634  and  _636
REMARK  246  A    between atoms: _636  and  _637
REMARK  247  A    between atoms: _636  and  _639
REMARK  248  A    between atoms: _639  and  _640
REMARK  249  A    between atoms: _646  and  _648
REMARK  250  A    between atoms: _648  and  _649
REMARK  251  A    between atoms: _648  and  _651
REMARK  252  A    between atoms: _651  and  _652
REMARK  253  A    between atoms: _652  and  _653
REMARK  254  A    between atoms: _658  and  _660
REMARK  255  A    between atoms: _660  and  _661
REMARK  256  A    between atoms: _660  and  _663
REMARK  257  A    between atoms: _663  and  _664
REMARK  258  A    between atoms: _667  and  _669
REMARK  259  A    between atoms: _669  and  _670
REMARK  260  A    between atoms: _669  and  _672
REMARK  261  A    between atoms: _672  and  _673
REMARK  262  A    between atoms: _678  and  _679
REMARK  263  A    between atoms: _681  and  _683
REMARK  264  A    between atoms: _683  and  _684
REMARK  265  A    between atoms: _683  and  _686
REMARK  266  A    between atoms: _686  and  _687
REMARK  267  A    between atoms: _692  and  _693
REMARK  268  A    between atoms: _695  and  _697
REMARK  269  A    between atoms: _697  and  _698
REMARK  270  A    between atoms: _697  and  _700
REMARK  271  A    between atoms: _700  and  _701
REMARK  272  A    between atoms: _701  and  _702
REMARK  273  A    between atoms: _705  and  _707
REMARK  274  A    between atoms: _707  and  _708
REMARK  275  A    between atoms: _707  and  _710
REMARK  276  A    between atoms: _710  and  _711
REMARK  277  A    between atoms: _711  and  _712
REMARK  278  A    between atoms: _712  and  _713
REMARK  279  A    between atoms: _722  and  _724
REMARK  280  A    between atoms: _724  and  _725
REMARK  281  A    between atoms: _724  and  _727
REMARK  282  A    between atoms: _727  and  _728
REMARK  283  A    between atoms: _738  and  _740
REMARK  284  A    between atoms: _740  and  _741
REMARK  285  A    between atoms: _740  and  _743
REMARK  286  A    between atoms: _743  and  _744
REMARK  287  A    between atoms: _747  and  _749
REMARK  288  A    between atoms: _749  and  _750
REMARK  289  A    between atoms: _753  and  _755
REMARK  290  A    between atoms: _755  and  _756
REMARK  291  A    between atoms: _755  and  _758
REMARK  292  A    between atoms: _758  and  _759
REMARK  293  A    between atoms: _762  and  _764
REMARK  294  A    between atoms: _764  and  _765
REMARK  295  A    between atoms: _764  and  _767
REMARK  296  A    between atoms: _767  and  _768
REMARK  297  A    between atoms: _768  and  _769
REMARK  298  A    between atoms: _769  and  _770
REMARK  299  A    between atoms: _770  and  _771
REMARK  300  A    between atoms: _775  and  _777
REMARK  301  A    between atoms: _777  and  _778
REMARK  302  A    between atoms: _777  and  _780
REMARK  303  A    between atoms: _780  and  _781
REMARK                            x       y       z     vdW  Elec       q    Type
REMARK                         _______ _______ _______ _____ _____    ______ ____
ROOT
ATOM      1  O   HOH     1     -15.374  -0.458 -18.815  0.00  0.00    +0.000 OA
ENDROOT
TORSDOF 0
REMARK  Name = ../refined-set-2016/1y3p/1y3p_pocket.pdb
REMARK  303 active torsions:
REMARK  status: ('A' for Active; 'I' for Inactive)
REMARK    1  A    between atoms: _1  and  _3
REMARK    2  A    between atoms: _3  and  _4
REMARK    3  A    between atoms: _3  and  _6
REMARK    4  A    between atoms: _6  and  _7
REMARK    5  A    between atoms: _12  and  _14
REMARK    6  A    between atoms: _14  and  _15
REMARK    7  A    between atoms: _14  and  _17
REMARK    8  A    between atoms: _17  and  _18
REMARK    9  A    between atoms: _24  and  _26
REMARK   10  A    between atoms: _26  and  _27
REMARK   11  A    between atoms: _26  and  _29
REMARK   12  A    between atoms: _29  and  _30
REMARK   13  A    between atoms: _30  and  _31
REMARK   14  A    between atoms: _31  and  _32
REMARK   15  A    between atoms: _41  and  _43
REMARK   16  A    between atoms: _43  and  _44
REMARK   17  A    between atoms: _43  and  _46
REMARK   18  A    between atoms: _46  and  _47
REMARK   19  A    between atoms: _50  and  _52
REMARK   20  A    between atoms: _52  and  _53
REMARK   21  A    between atoms: _52  and  _55
REMARK   22  A    between atoms: _55  and  _56
REMARK   23  A    between atoms: _56  and  _57
REMARK   24  A    between atoms: _57  and  _58
REMARK   25  A    between atoms: _58  and  _59
REMARK   26  A    between atoms: _63  and  _65
REMARK   27  A    between atoms: _65  and  _66
REMARK   28  A    between atoms: _65  and  _68
REMARK   29  A    between atoms: _68  and  _69
REMARK   30  A    between atoms: _79  and  _81
REMARK   31  A    between atoms: _81  and  _82
REMARK   32  A    between atoms: _81  and  _84
REMARK   33  A    between atoms: _84  and  _85
REMARK   34  A    between atoms: _88  and  _90
REMARK   35  A    between atoms: _90  and  _91
REMARK   36  A    between atoms: _90  and  _93
REMARK   37  A    between atoms: _93  and  _94
REMARK   38  A    between atoms: _99  and  _101
REMARK   39  A    between atoms: _101  and  _102
REMARK   40  A    between atoms: _101  and  _104
REMARK   41  A    between atoms: _104  and  _105
REMARK   42  A    between atoms: _107  and  _109
REMARK   43  A    between atoms: _109  and  _110
REMARK   44  A    between atoms: _109  and  _112
REMARK   45  A    between atoms: _112  and  _113
REMARK   46  A    between atoms: _113  and  _114
REMARK   47  A    between atoms: _119  and  _121
REMARK   48  A    between atoms: _121  and  _122
REMARK   49  A    between atoms: _121  and  _124
REMARK   50  A    between atoms: _124  and  _125
REMARK   51  A    between atoms: _125  and  _126
REMARK   52  A    between atoms: _129  and  _131
REMARK   53  A    between atoms: _131  and  _132
REMARK   54  A    between atoms: _134  and  _136
REMARK   55  A    between atoms: _136  and  _137
REMARK   56  A    between atoms: _136  and  _139
REMARK   57  A    between atoms: _139  and  _140
REMARK   58  A    between atoms: _143  and  _145
REMARK   59  A    between atoms: _145  and  _146
REMARK   60  A    between atoms: _145  and  _148
REMARK   61  A    between atoms: _148  and  _149
REMARK   62  A    between atoms: _154  and  _156
REMARK   63  A    between atoms: _156  and  _157
REMARK   64  A    between atoms: _156  and  _159
REMARK   65  A    between atoms: _159  and  _160
REMARK   66  A    between atoms: _163  and  _165
REMARK   67  A    between atoms: _165  and  _166
REMARK   68  A    between atoms: _165  and  _168
REMARK   69  A    between atoms: _168  and  _169
REMARK   70  A    between atoms: _169  and  _170
REMARK   71  A    between atoms: _170  and  _171
REMARK   72  A    between atoms: _171  and  _172
REMARK   73  A    between atoms: _176  and  _178
REMARK   74  A    between atoms: _178  and  _179
REMARK   75  A    between atoms: _178  and  _181
REMARK   76  A    between atoms: _181  and  _182
REMARK   77  A    between atoms: _187  and  _188
REMARK   78  A    between atoms: _191  and  _192
REMARK   79  A    between atoms: _197  and  _199
REMARK   80  A    between atoms: _199  and  _200
REMARK   81  A    between atoms: _199  and  _202
REMARK   82  A    between atoms: _202  and  _203
REMARK   83  A    between atoms: _206  and  _208
REMARK   84  A    between atoms: _208  and  _209
REMARK   85  A    between atoms: _211  and  _213
REMARK   86  A    between atoms: _213  and  _214
REMARK   87  A    between atoms: _213  and  _216
REMARK   88  A    between atoms: _219  and  _221
REMARK   89  A    between atoms: _221  and  _222
REMARK   90  A    between atoms: _221  and  _224
REMARK   91  A    between atoms: _224  and  _225
REMARK   92  A    between atoms: _227  and  _229
REMARK   93  A    between atoms: _229  and  _230
REMARK   94  A    between atoms: _229  and  _232
REMARK   95  A    between atoms: _232  and  _233
REMARK   96  A    between atoms: _233  and  _234
REMARK   97  A    between atoms: _234  and  _235
REMARK   98  A    between atoms: _244  and  _246
REMARK   99  A    between atoms: _246  and  _247
REMARK  100  A    between atoms: _246  and  _249
REMARK  101  A    between atoms: _249  and  _250
REMARK  102  A    between atoms: _255  and  _257
REMARK  103  A    between atoms: _257  and  _258
REMARK  104  A    between atoms: _257  and  _260
REMARK  105  A    between atoms: _260  and  _261
REMARK  106  A    between atoms: _261  and  _262
REMARK  107  A    between atoms: _262  and  _263
REMARK  108  A    between atoms: _272  and  _274
REMARK  109  A    between atoms: _274  and  _275
REMARK  110  A    between atoms: _274  and  _277
REMARK  111  A    between atoms: _277  and  _278
REMARK  112  A    between atoms: _282  and  _283
REMARK  113  A    between atoms: _288  and  _290
REMARK  114  A    between atoms: _290  and  _291
REMARK  115  A    between atoms: _290  and  _293
REMARK  116  A    between atoms: _293  and  _294
REMARK  117  A    between atoms: _294  and  _295
REMARK  118  A    between atoms: _298  and  _300
REMARK  119  A    between atoms: _300  and  _301
REMARK  120  A    between atoms: _300  and  _303
REMARK  121  A    between atoms: _303  and  _304
REMARK  122  A    between atoms: _304  and  _305
REMARK  123  A    between atoms: _308  and  _310
REMARK  124  A    between atoms: _310  and  _311
REMARK  125  A    between atoms: _310  and  _313
REMARK  126  A    between atoms: _313  and  _314
REMARK  127  A    between atoms: _319  and  _321
REMARK  128  A    between atoms: _321  and  _322
REMARK  129  A    between atoms: _321  and  _324
REMARK  130  A    between atoms: _324  and  _325
REMARK  131  A    between atoms: _328  and  _330
REMARK  132  A    between atoms: _330  and  _331
REMARK  133  A    between atoms: _330  and  _333
REMARK  134  A    between atoms: _333  and  _334
REMARK  135  A    between atoms: _344  and  _346
REMARK  136  A    between atoms: _346  and  _347
REMARK  137  A    between atoms: _346  and  _349
REMARK  138  A    between atoms: _349  and  _350
REMARK  139  A    between atoms: _350  and  _351
REMARK  140  A    between atoms: _353  and  _355
REMARK  141  A    between atoms: _355  and  _356
REMARK  142  A    between atoms: _355  and  _358
REMARK  143  A    between atoms: _358  and  _359
REMARK  144  A    between atoms: _359  and  _360
REMARK  145  A    between atoms: _360  and  _361
REMARK  146  A    between atoms: _361  and  _362
REMARK  147  A    between atoms: _366  and  _368
REMARK  148  A    between atoms: _368  and  _369
REMARK  149  A    between atoms: _372  and  _374
REMARK  150  A    between atoms: _374  and  _375
REMARK  151  A    between atoms: _374  and  _377
REMARK  152  A    between atoms: _377  and  _378
REMARK  153  A    between atoms: _378  and  _379
REMARK  154  A    between atoms: _379  and  _380
REMARK  155  A    between atoms: _389  and  _391
REMARK  156  A    between atoms: _391  and  _392
REMARK  157  A    between atoms: _391  and  _394
REMARK  158  A    between atoms: _394  and  _395
REMARK  159  A    between atoms: _398  and  _400
REMARK  160  A    between atoms: _400  and  _401
REMARK  161  A    between atoms: _400  and  _403
REMARK  162  A    between atoms: _403  and  _404
REMARK  163  A    between atoms: _414  and  _416
REMARK  164  A    between atoms: _416  and  _417
REMARK  165  A    between atoms: _416  and  _419
REMARK  166  A    between atoms: _419  and  _420
REMARK  167  A    between atoms: _426  and  _428
REMARK  168  A    between atoms: _428  and  _429
REMARK  169  A    between atoms: _432  and  _434
REMARK  170  A    between atoms: _434  and  _435
REMARK  171  A    between atoms: _434  and  _437
REMARK  172  A    between atoms: _437  and  _438
REMARK  173  A    between atoms: _440  and  _442
REMARK  174  A    between atoms: _442  and  _443
REMARK  175  A    between atoms: _442  and  _445
REMARK  176  A    between atoms: _445  and  _446
REMARK  177  A    between atoms: _449  and  _451
REMARK  178  A    between atoms: _451  and  _452
REMARK  179  A    between atoms: _455  and  _457
REMARK  180  A    between atoms: _457  and  _458
REMARK  181  A    between atoms: _457  and  _460
REMARK  182  A    between atoms: _460  and  _461
REMARK  183  A    between atoms: _464  and  _466
REMARK  184  A    between atoms: _466  and  _467
REMARK  185  A    between atoms: _466  and  _469
REMARK  186  A    between atoms: _469  and  _470
REMARK  187  A    between atoms: _473  and  _475
REMARK  188  A    between atoms: _475  and  _476
REMARK  189  A    between atoms: _475  and  _478
REMARK  190  A    between atoms: _478  and  _479
REMARK  191  A    between atoms: _479  and  _480
REMARK  192  A    between atoms: _480  and  _481
REMARK  193  A    between atoms: _490  and  _492
REMARK  194  A    between atoms: _492  and  _493
REMARK  195  A    between atoms: _492  and  _495
REMARK  196  A    between atoms: _495  and  _496
REMARK  197  A    between atoms: _496  and  _497
REMARK  198  A    between atoms: _502  and  _504
REMARK  199  A    between atoms: _504  and  _505
REMARK  200  A    between atoms: _504  and  _507
REMARK  201  A    between atoms: _507  and  _508
REMARK  202  A    between atoms: _508  and  _509
REMARK  203  A    between atoms: _509  and  _510
REMARK  204  A    between atoms: _520  and  _521
REMARK  205  A    between atoms: _526  and  _528
REMARK  206  A    between atoms: _528  and  _529
REMARK  207  A    between atoms: _528  and  _531
REMARK  208  A    between atoms: _531  and  _532
REMARK  209  A    between atoms: _535  and  _537
REMARK  210  A    between atoms: _537  and  _538
REMARK  211  A    between atoms: _537  and  _540
REMARK  212  A    between atoms: _540  and  _541
REMARK  213  A    between atoms: _547  and  _548
REMARK  214  A    between atoms: _553  and  _555
REMARK  215  A    between atoms: _555  and  _556
REMARK  216  A    between atoms: _555  and  _558
REMARK  217  A    between atoms: _561  and  _563
REMARK  218  A    between atoms: _563  and  _564
REMARK  219  A    between atoms: _563  and  _566
REMARK  220  A    between atoms: _566  and  _567
REMARK  221  A    between atoms: _572  and  _574
REMARK  222  A    between atoms: _574  and  _575
REMARK  223  A    between atoms: _574  and  _577
REMARK  224  A    between atoms: _577  and  _578
REMARK  225  A    between atoms: _583  and  _585
REMARK  226  A    between atoms: _585  and  _586
REMARK  227  A    between atoms: _585  and  _588
REMARK  228  A    between atoms: _588  and  _589
REMARK  229  A    between atoms: _589  and  _590
REMARK  230  A    between atoms: _592  and  _594
REMARK  231  A    between atoms: _594  and  _595
REMARK  232  A    between atoms: _594  and  _597
REMARK  233  A    between atoms: _597  and  _598
REMARK  234  A    between atoms: _603  and  _604
REMARK  235  A    between atoms: _606  and  _608
REMARK  236  A    between atoms: _608  and  _609
REMARK  237  A    between atoms: _608  and  _611
REMARK  238  A    between atoms: _611  and  _612
REMARK  239  A    between atoms: _612  and  _613
REMARK  240  A    between atoms: _618  and  _620
REMARK  241  A    between atoms: _620  and  _621
REMARK  242  A    between atoms: _620  and  _623
REMARK  243  A    between atoms: _623  and  _624
REMARK  244  A    between atoms: _628  and  _629
REMARK  245  A    between atoms: _634  and  _636
REMARK  246  A    between atoms: _636  and  _637
REMARK  247  A    between atoms: _636  and  _639
REMARK  248  A    between atoms: _639  and  _640
REMARK  249  A    between atoms: _646  and  _648
REMARK  250  A    between atoms: _648  and  _649
REMARK  251  A    between atoms: _648  and  _651
REMARK  252  A    between atoms: _651  and  _652
REMARK  253  A    between atoms: _652  and  _653
REMARK  254  A    between atoms: _658  and  _660
REMARK  255  A    between atoms: _660  and  _661
REMARK  256  A    between atoms: _660  and  _663
REMARK  257  A    between atoms: _663  and  _664
REMARK  258  A    between atoms: _667  and  _669
REMARK  259  A    between atoms: _669  and  _670
REMARK  260  A    between atoms: _669  and  _672
REMARK  261  A    between atoms: _672  and  _673
REMARK  262  A    between atoms: _678  and  _679
REMARK  263  A    between atoms: _681  and  _683
REMARK  264  A    between atoms: _683  and  _684
REMARK  265  A    between atoms: _683  and  _686
REMARK  266  A    between atoms: _686  and  _687
REMARK  267  A    between atoms: _692  and  _693
REMARK  268  A    between atoms: _695  and  _697
REMARK  269  A    between atoms: _697  and  _698
REMARK  270  A    between atoms: _697  and  _700
REMARK  271  A    between atoms: _700  and  _701
REMARK  272  A    between atoms: _701  and  _702
REMARK  273  A    between atoms: _705  and  _707
REMARK  274  A    between atoms: _707  and  _708
REMARK  275  A    between atoms: _707  and  _710
REMARK  276  A    between atoms: _710  and  _711
REMARK  277  A    between atoms: _711  and  _712
REMARK  278  A    between atoms: _712  and  _713
REMARK  279  A    between atoms: _722  and  _724
REMARK  280  A    between atoms: _724  and  _725
REMARK  281  A    between atoms: _724  and  _727
REMARK  282  A    between atoms: _727  and  _728
REMARK  283  A    between atoms: _738  and  _740
REMARK  284  A    between atoms: _740  and  _741
REMARK  285  A    between atoms: _740  and  _743
REMARK  286  A    between atoms: _743  and  _744
REMARK  287  A    between atoms: _747  and  _749
REMARK  288  A    between atoms: _749  and  _750
REMARK  289  A    between atoms: _753  and  _755
REMARK  290  A    between atoms: _755  and  _756
REMARK  291  A    between atoms: _755  and  _758
REMARK  292  A    between atoms: _758  and  _759
REMARK  293  A    between atoms: _762  and  _764
REMARK  294  A    between atoms: _764  and  _765
REMARK  295  A    between atoms: _764  and  _767
REMARK  296  A    between atoms: _767  and  _768
REMARK  297  A    between atoms: _768  and  _769
REMARK  298  A    between atoms: _769  and  _770
REMARK  299  A    between atoms: _770  and  _771
REMARK  300  A    between atoms: _775  and  _777
REMARK  301  A    between atoms: _777  and  _778
REMARK  302  A    between atoms: _777  and  _780
REMARK  303  A    between atoms: _780  and  _781
REMARK                            x       y       z     vdW  Elec       q    Type
REMARK                         _______ _______ _______ _____ _____    ______ ____
ROOT
ATOM      1  O   HOH     1     -11.245 -11.434 -10.877  0.00  0.00    +0.000 OA
ENDROOT
TORSDOF 0
REMARK  Name = ../refined-set-2016/1y3p/1y3p_pocket.pdb
REMARK  303 active torsions:
REMARK  status: ('A' for Active; 'I' for Inactive)
REMARK    1  A    between atoms: _1  and  _3
REMARK    2  A    between atoms: _3  and  _4
REMARK    3  A    between atoms: _3  and  _6
REMARK    4  A    between atoms: _6  and  _7
REMARK    5  A    between atoms: _12  and  _14
REMARK    6  A    between atoms: _14  and  _15
REMARK    7  A    between atoms: _14  and  _17
REMARK    8  A    between atoms: _17  and  _18
REMARK    9  A    between atoms: _24  and  _26
REMARK   10  A    between atoms: _26  and  _27
REMARK   11  A    between atoms: _26  and  _29
REMARK   12  A    between atoms: _29  and  _30
REMARK   13  A    between atoms: _30  and  _31
REMARK   14  A    between atoms: _31  and  _32
REMARK   15  A    between atoms: _41  and  _43
REMARK   16  A    between atoms: _43  and  _44
REMARK   17  A    between atoms: _43  and  _46
REMARK   18  A    between atoms: _46  and  _47
REMARK   19  A    between atoms: _50  and  _52
REMARK   20  A    between atoms: _52  and  _53
REMARK   21  A    between atoms: _52  and  _55
REMARK   22  A    between atoms: _55  and  _56
REMARK   23  A    between atoms: _56  and  _57
REMARK   24  A    between atoms: _57  and  _58
REMARK   25  A    between atoms: _58  and  _59
REMARK   26  A    between atoms: _63  and  _65
REMARK   27  A    between atoms: _65  and  _66
REMARK   28  A    between atoms: _65  and  _68
REMARK   29  A    between atoms: _68  and  _69
REMARK   30  A    between atoms: _79  and  _81
REMARK   31  A    between atoms: _81  and  _82
REMARK   32  A    between atoms: _81  and  _84
REMARK   33  A    between atoms: _84  and  _85
REMARK   34  A    between atoms: _88  and  _90
REMARK   35  A    between atoms: _90  and  _91
REMARK   36  A    between atoms: _90  and  _93
REMARK   37  A    between atoms: _93  and  _94
REMARK   38  A    between atoms: _99  and  _101
REMARK   39  A    between atoms: _101  and  _102
REMARK   40  A    between atoms: _101  and  _104
REMARK   41  A    between atoms: _104  and  _105
REMARK   42  A    between atoms: _107  and  _109
REMARK   43  A    between atoms: _109  and  _110
REMARK   44  A    between atoms: _109  and  _112
REMARK   45  A    between atoms: _112  and  _113
REMARK   46  A    between atoms: _113  and  _114
REMARK   47  A    between atoms: _119  and  _121
REMARK   48  A    between atoms: _121  and  _122
REMARK   49  A    between atoms: _121  and  _124
REMARK   50  A    between atoms: _124  and  _125
REMARK   51  A    between atoms: _125  and  _126
REMARK   52  A    between atoms: _129  and  _131
REMARK   53  A    between atoms: _131  and  _132
REMARK   54  A    between atoms: _134  and  _136
REMARK   55  A    between atoms: _136  and  _137
REMARK   56  A    between atoms: _136  and  _139
REMARK   57  A    between atoms: _139  and  _140
REMARK   58  A    between atoms: _143  and  _145
REMARK   59  A    between atoms: _145  and  _146
REMARK   60  A    between atoms: _145  and  _148
REMARK   61  A    between atoms: _148  and  _149
REMARK   62  A    between atoms: _154  and  _156
REMARK   63  A    between atoms: _156  and  _157
REMARK   64  A    between atoms: _156  and  _159
REMARK   65  A    between atoms: _159  and  _160
REMARK   66  A    between atoms: _163  and  _165
REMARK   67  A    between atoms: _165  and  _166
REMARK   68  A    between atoms: _165  and  _168
REMARK   69  A    between atoms: _168  and  _169
REMARK   70  A    between atoms: _169  and  _170
REMARK   71  A    between atoms: _170  and  _171
REMARK   72  A    between atoms: _171  and  _172
REMARK   73  A    between atoms: _176  and  _178
REMARK   74  A    between atoms: _178  and  _179
REMARK   75  A    between atoms: _178  and  _181
REMARK   76  A    between atoms: _181  and  _182
REMARK   77  A    between atoms: _187  and  _188
REMARK   78  A    between atoms: _191  and  _192
REMARK   79  A    between atoms: _197  and  _199
REMARK   80  A    between atoms: _199  and  _200
REMARK   81  A    between atoms: _199  and  _202
REMARK   82  A    between atoms: _202  and  _203
REMARK   83  A    between atoms: _206  and  _208
REMARK   84  A    between atoms: _208  and  _209
REMARK   85  A    between atoms: _211  and  _213
REMARK   86  A    between atoms: _213  and  _214
REMARK   87  A    between atoms: _213  and  _216
REMARK   88  A    between atoms: _219  and  _221
REMARK   89  A    between atoms: _221  and  _222
REMARK   90  A    between atoms: _221  and  _224
REMARK   91  A    between atoms: _224  and  _225
REMARK   92  A    between atoms: _227  and  _229
REMARK   93  A    between atoms: _229  and  _230
REMARK   94  A    between atoms: _229  and  _232
REMARK   95  A    between atoms: _232  and  _233
REMARK   96  A    between atoms: _233  and  _234
REMARK   97  A    between atoms: _234  and  _235
REMARK   98  A    between atoms: _244  and  _246
REMARK   99  A    between atoms: _246  and  _247
REMARK  100  A    between atoms: _246  and  _249
REMARK  101  A    between atoms: _249  and  _250
REMARK  102  A    between atoms: _255  and  _257
REMARK  103  A    between atoms: _257  and  _258
REMARK  104  A    between atoms: _257  and  _260
REMARK  105  A    between atoms: _260  and  _261
REMARK  106  A    between atoms: _261  and  _262
REMARK  107  A    between atoms: _262  and  _263
REMARK  108  A    between atoms: _272  and  _274
REMARK  109  A    between atoms: _274  and  _275
REMARK  110  A    between atoms: _274  and  _277
REMARK  111  A    between atoms: _277  and  _278
REMARK  112  A    between atoms: _282  and  _283
REMARK  113  A    between atoms: _288  and  _290
REMARK  114  A    between atoms: _290  and  _291
REMARK  115  A    between atoms: _290  and  _293
REMARK  116  A    between atoms: _293  and  _294
REMARK  117  A    between atoms: _294  and  _295
REMARK  118  A    between atoms: _298  and  _300
REMARK  119  A    between atoms: _300  and  _301
REMARK  120  A    between atoms: _300  and  _303
REMARK  121  A    between atoms: _303  and  _304
REMARK  122  A    between atoms: _304  and  _305
REMARK  123  A    between atoms: _308  and  _310
REMARK  124  A    between atoms: _310  and  _311
REMARK  125  A    between atoms: _310  and  _313
REMARK  126  A    between atoms: _313  and  _314
REMARK  127  A    between atoms: _319  and  _321
REMARK  128  A    between atoms: _321  and  _322
REMARK  129  A    between atoms: _321  and  _324
REMARK  130  A    between atoms: _324  and  _325
REMARK  131  A    between atoms: _328  and  _330
REMARK  132  A    between atoms: _330  and  _331
REMARK  133  A    between atoms: _330  and  _333
REMARK  134  A    between atoms: _333  and  _334
REMARK  135  A    between atoms: _344  and  _346
REMARK  136  A    between atoms: _346  and  _347
REMARK  137  A    between atoms: _346  and  _349
REMARK  138  A    between atoms: _349  and  _350
REMARK  139  A    between atoms: _350  and  _351
REMARK  140  A    between atoms: _353  and  _355
REMARK  141  A    between atoms: _355  and  _356
REMARK  142  A    between atoms: _355  and  _358
REMARK  143  A    between atoms: _358  and  _359
REMARK  144  A    between atoms: _359  and  _360
REMARK  145  A    between atoms: _360  and  _361
REMARK  146  A    between atoms: _361  and  _362
REMARK  147  A    between atoms: _366  and  _368
REMARK  148  A    between atoms: _368  and  _369
REMARK  149  A    between atoms: _372  and  _374
REMARK  150  A    between atoms: _374  and  _375
REMARK  151  A    between atoms: _374  and  _377
REMARK  152  A    between atoms: _377  and  _378
REMARK  153  A    between atoms: _378  and  _379
REMARK  154  A    between atoms: _379  and  _380
REMARK  155  A    between atoms: _389  and  _391
REMARK  156  A    between atoms: _391  and  _392
REMARK  157  A    between atoms: _391  and  _394
REMARK  158  A    between atoms: _394  and  _395
REMARK  159  A    between atoms: _398  and  _400
REMARK  160  A    between atoms: _400  and  _401
REMARK  161  A    between atoms: _400  and  _403
REMARK  162  A    between atoms: _403  and  _404
REMARK  163  A    between atoms: _414  and  _416
REMARK  164  A    between atoms: _416  and  _417
REMARK  165  A    between atoms: _416  and  _419
REMARK  166  A    between atoms: _419  and  _420
REMARK  167  A    between atoms: _426  and  _428
REMARK  168  A    between atoms: _428  and  _429
REMARK  169  A    between atoms: _432  and  _434
REMARK  170  A    between atoms: _434  and  _435
REMARK  171  A    between atoms: _434  and  _437
REMARK  172  A    between atoms: _437  and  _438
REMARK  173  A    between atoms: _440  and  _442
REMARK  174  A    between atoms: _442  and  _443
REMARK  175  A    between atoms: _442  and  _445
REMARK  176  A    between atoms: _445  and  _446
REMARK  177  A    between atoms: _449  and  _451
REMARK  178  A    between atoms: _451  and  _452
REMARK  179  A    between atoms: _455  and  _457
REMARK  180  A    between atoms: _457  and  _458
REMARK  181  A    between atoms: _457  and  _460
REMARK  182  A    between atoms: _460  and  _461
REMARK  183  A    between atoms: _464  and  _466
REMARK  184  A    between atoms: _466  and  _467
REMARK  185  A    between atoms: _466  and  _469
REMARK  186  A    between atoms: _469  and  _470
REMARK  187  A    between atoms: _473  and  _475
REMARK  188  A    between atoms: _475  and  _476
REMARK  189  A    between atoms: _475  and  _478
REMARK  190  A    between atoms: _478  and  _479
REMARK  191  A    between atoms: _479  and  _480
REMARK  192  A    between atoms: _480  and  _481
REMARK  193  A    between atoms: _490  and  _492
REMARK  194  A    between atoms: _492  and  _493
REMARK  195  A    between atoms: _492  and  _495
REMARK  196  A    between atoms: _495  and  _496
REMARK  197  A    between atoms: _496  and  _497
REMARK  198  A    between atoms: _502  and  _504
REMARK  199  A    between atoms: _504  and  _505
REMARK  200  A    between atoms: _504  and  _507
REMARK  201  A    between atoms: _507  and  _508
REMARK  202  A    between atoms: _508  and  _509
REMARK  203  A    between atoms: _509  and  _510
REMARK  204  A    between atoms: _520  and  _521
REMARK  205  A    between atoms: _526  and  _528
REMARK  206  A    between atoms: _528  and  _529
REMARK  207  A    between atoms: _528  and  _531
REMARK  208  A    between atoms: _531  and  _532
REMARK  209  A    between atoms: _535  and  _537
REMARK  210  A    between atoms: _537  and  _538
REMARK  211  A    between atoms: _537  and  _540
REMARK  212  A    between atoms: _540  and  _541
REMARK  213  A    between atoms: _547  and  _548
REMARK  214  A    between atoms: _553  and  _555
REMARK  215  A    between atoms: _555  and  _556
REMARK  216  A    between atoms: _555  and  _558
REMARK  217  A    between atoms: _561  and  _563
REMARK  218  A    between atoms: _563  and  _564
REMARK  219  A    between atoms: _563  and  _566
REMARK  220  A    between atoms: _566  and  _567
REMARK  221  A    between atoms: _572  and  _574
REMARK  222  A    between atoms: _574  and  _575
REMARK  223  A    between atoms: _574  and  _577
REMARK  224  A    between atoms: _577  and  _578
REMARK  225  A    between atoms: _583  and  _585
REMARK  226  A    between atoms: _585  and  _586
REMARK  227  A    between atoms: _585  and  _588
REMARK  228  A    between atoms: _588  and  _589
REMARK  229  A    between atoms: _589  and  _590
REMARK  230  A    between atoms: _592  and  _594
REMARK  231  A    between atoms: _594  and  _595
REMARK  232  A    between atoms: _594  and  _597
REMARK  233  A    between atoms: _597  and  _598
REMARK  234  A    between atoms: _603  and  _604
REMARK  235  A    between atoms: _606  and  _608
REMARK  236  A    between atoms: _608  and  _609
REMARK  237  A    between atoms: _608  and  _611
REMARK  238  A    between atoms: _611  and  _612
REMARK  239  A    between atoms: _612  and  _613
REMARK  240  A    between atoms: _618  and  _620
REMARK  241  A    between atoms: _620  and  _621
REMARK  242  A    between atoms: _620  and  _623
REMARK  243  A    between atoms: _623  and  _624
REMARK  244  A    between atoms: _628  and  _629
REMARK  245  A    between atoms: _634  and  _636
REMARK  246  A    between atoms: _636  and  _637
REMARK  247  A    between atoms: _636  and  _639
REMARK  248  A    between atoms: _639  and  _640
REMARK  249  A    between atoms: _646  and  _648
REMARK  250  A    between atoms: _648  and  _649
REMARK  251  A    between atoms: _648  and  _651
REMARK  252  A    between atoms: _651  and  _652
REMARK  253  A    between atoms: _652  and  _653
REMARK  254  A    between atoms: _658  and  _660
REMARK  255  A    between atoms: _660  and  _661
REMARK  256  A    between atoms: _660  and  _663
REMARK  257  A    between atoms: _663  and  _664
REMARK  258  A    between atoms: _667  and  _669
REMARK  259  A    between atoms: _669  and  _670
REMARK  260  A    between atoms: _669  and  _672
REMARK  261  A    between atoms: _672  and  _673
REMARK  262  A    between atoms: _678  and  _679
REMARK  263  A    between atoms: _681  and  _683
REMARK  264  A    between atoms: _683  and  _684
REMARK  265  A    between atoms: _683  and  _686
REMARK  266  A    between atoms: _686  and  _687
REMARK  267  A    between atoms: _692  and  _693
REMARK  268  A    between atoms: _695  and  _697
REMARK  269  A    between atoms: _697  and  _698
REMARK  270  A    between atoms: _697  and  _700
REMARK  271  A    between atoms: _700  and  _701
REMARK  272  A    between atoms: _701  and  _702
REMARK  273  A    between atoms: _705  and  _707
REMARK  274  A    between atoms: _707  and  _708
REMARK  275  A    between atoms: _707  and  _710
REMARK  276  A    between atoms: _710  and  _711
REMARK  277  A    between atoms: _711  and  _712
REMARK  278  A    between atoms: _712  and  _713
REMARK  279  A    between atoms: _722  and  _724
REMARK  280  A    between atoms: _724  and  _725
REMARK  281  A    between atoms: _724  and  _727
REMARK  282  A    between atoms: _727  and  _728
REMARK  283  A    between atoms: _738  and  _740
REMARK  284  A    between atoms: _740  and  _741
REMARK  285  A    between atoms: _740  and  _743
REMARK  286  A    between atoms: _743  and  _744
REMARK  287  A    between atoms: _747  and  _749
REMARK  288  A    between atoms: _749  and  _750
REMARK  289  A    between atoms: _753  and  _755
REMARK  290  A    between atoms: _755  and  _756
REMARK  291  A    between atoms: _755  and  _758
REMARK  292  A    between atoms: _758  and  _759
REMARK  293  A    between atoms: _762  and  _764
REMARK  294  A    between atoms: _764  and  _765
REMARK  295  A    between atoms: _764  and  _767
REMARK  296  A    between atoms: _767  and  _768
REMARK  297  A    between atoms: _768  and  _769
REMARK  298  A    between atoms: _769  and  _770
REMARK  299  A    between atoms: _770  and  _771
REMARK  300  A    between atoms: _775  and  _777
REMARK  301  A    between atoms: _777  and  _778
REMARK  302  A    between atoms: _777  and  _780
REMARK  303  A    between atoms: _780  and  _781
REMARK                            x       y       z     vdW  Elec       q    Type
REMARK                         _______ _______ _______ _____ _____    ______ ____
ROOT
ATOM      1  O   HOH     1     -12.382 -13.711 -11.928  0.00  0.00    +0.000 OA
ENDROOT
TORSDOF 0
REMARK  Name = ../refined-set-2016/1y3p/1y3p_pocket.pdb
REMARK  303 active torsions:
REMARK  status: ('A' for Active; 'I' for Inactive)
REMARK    1  A    between atoms: _1  and  _3
REMARK    2  A    between atoms: _3  and  _4
REMARK    3  A    between atoms: _3  and  _6
REMARK    4  A    between atoms: _6  and  _7
REMARK    5  A    between atoms: _12  and  _14
REMARK    6  A    between atoms: _14  and  _15
REMARK    7  A    between atoms: _14  and  _17
REMARK    8  A    between atoms: _17  and  _18
REMARK    9  A    between atoms: _24  and  _26
REMARK   10  A    between atoms: _26  and  _27
REMARK   11  A    between atoms: _26  and  _29
REMARK   12  A    between atoms: _29  and  _30
REMARK   13  A    between atoms: _30  and  _31
REMARK   14  A    between atoms: _31  and  _32
REMARK   15  A    between atoms: _41  and  _43
REMARK   16  A    between atoms: _43  and  _44
REMARK   17  A    between atoms: _43  and  _46
REMARK   18  A    between atoms: _46  and  _47
REMARK   19  A    between atoms: _50  and  _52
REMARK   20  A    between atoms: _52  and  _53
REMARK   21  A    between atoms: _52  and  _55
REMARK   22  A    between atoms: _55  and  _56
REMARK   23  A    between atoms: _56  and  _57
REMARK   24  A    between atoms: _57  and  _58
REMARK   25  A    between atoms: _58  and  _59
REMARK   26  A    between atoms: _63  and  _65
REMARK   27  A    between atoms: _65  and  _66
REMARK   28  A    between atoms: _65  and  _68
REMARK   29  A    between atoms: _68  and  _69
REMARK   30  A    between atoms: _79  and  _81
REMARK   31  A    between atoms: _81  and  _82
REMARK   32  A    between atoms: _81  and  _84
REMARK   33  A    between atoms: _84  and  _85
REMARK   34  A    between atoms: _88  and  _90
REMARK   35  A    between atoms: _90  and  _91
REMARK   36  A    between atoms: _90  and  _93
REMARK   37  A    between atoms: _93  and  _94
REMARK   38  A    between atoms: _99  and  _101
REMARK   39  A    between atoms: _101  and  _102
REMARK   40  A    between atoms: _101  and  _104
REMARK   41  A    between atoms: _104  and  _105
REMARK   42  A    between atoms: _107  and  _109
REMARK   43  A    between atoms: _109  and  _110
REMARK   44  A    between atoms: _109  and  _112
REMARK   45  A    between atoms: _112  and  _113
REMARK   46  A    between atoms: _113  and  _114
REMARK   47  A    between atoms: _119  and  _121
REMARK   48  A    between atoms: _121  and  _122
REMARK   49  A    between atoms: _121  and  _124
REMARK   50  A    between atoms: _124  and  _125
REMARK   51  A    between atoms: _125  and  _126
REMARK   52  A    between atoms: _129  and  _131
REMARK   53  A    between atoms: _131  and  _132
REMARK   54  A    between atoms: _134  and  _136
REMARK   55  A    between atoms: _136  and  _137
REMARK   56  A    between atoms: _136  and  _139
REMARK   57  A    between atoms: _139  and  _140
REMARK   58  A    between atoms: _143  and  _145
REMARK   59  A    between atoms: _145  and  _146
REMARK   60  A    between atoms: _145  and  _148
REMARK   61  A    between atoms: _148  and  _149
REMARK   62  A    between atoms: _154  and  _156
REMARK   63  A    between atoms: _156  and  _157
REMARK   64  A    between atoms: _156  and  _159
REMARK   65  A    between atoms: _159  and  _160
REMARK   66  A    between atoms: _163  and  _165
REMARK   67  A    between atoms: _165  and  _166
REMARK   68  A    between atoms: _165  and  _168
REMARK   69  A    between atoms: _168  and  _169
REMARK   70  A    between atoms: _169  and  _170
REMARK   71  A    between atoms: _170  and  _171
REMARK   72  A    between atoms: _171  and  _172
REMARK   73  A    between atoms: _176  and  _178
REMARK   74  A    between atoms: _178  and  _179
REMARK   75  A    between atoms: _178  and  _181
REMARK   76  A    between atoms: _181  and  _182
REMARK   77  A    between atoms: _187  and  _188
REMARK   78  A    between atoms: _191  and  _192
REMARK   79  A    between atoms: _197  and  _199
REMARK   80  A    between atoms: _199  and  _200
REMARK   81  A    between atoms: _199  and  _202
REMARK   82  A    between atoms: _202  and  _203
REMARK   83  A    between atoms: _206  and  _208
REMARK   84  A    between atoms: _208  and  _209
REMARK   85  A    between atoms: _211  and  _213
REMARK   86  A    between atoms: _213  and  _214
REMARK   87  A    between atoms: _213  and  _216
REMARK   88  A    between atoms: _219  and  _221
REMARK   89  A    between atoms: _221  and  _222
REMARK   90  A    between atoms: _221  and  _224
REMARK   91  A    between atoms: _224  and  _225
REMARK   92  A    between atoms: _227  and  _229
REMARK   93  A    between atoms: _229  and  _230
REMARK   94  A    between atoms: _229  and  _232
REMARK   95  A    between atoms: _232  and  _233
REMARK   96  A    between atoms: _233  and  _234
REMARK   97  A    between atoms: _234  and  _235
REMARK   98  A    between atoms: _244  and  _246
REMARK   99  A    between atoms: _246  and  _247
REMARK  100  A    between atoms: _246  and  _249
REMARK  101  A    between atoms: _249  and  _250
REMARK  102  A    between atoms: _255  and  _257
REMARK  103  A    between atoms: _257  and  _258
REMARK  104  A    between atoms: _257  and  _260
REMARK  105  A    between atoms: _260  and  _261
REMARK  106  A    between atoms: _261  and  _262
REMARK  107  A    between atoms: _262  and  _263
REMARK  108  A    between atoms: _272  and  _274
REMARK  109  A    between atoms: _274  and  _275
REMARK  110  A    between atoms: _274  and  _277
REMARK  111  A    between atoms: _277  and  _278
REMARK  112  A    between atoms: _282  and  _283
REMARK  113  A    between atoms: _288  and  _290
REMARK  114  A    between atoms: _290  and  _291
REMARK  115  A    between atoms: _290  and  _293
REMARK  116  A    between atoms: _293  and  _294
REMARK  117  A    between atoms: _294  and  _295
REMARK  118  A    between atoms: _298  and  _300
REMARK  119  A    between atoms: _300  and  _301
REMARK  120  A    between atoms: _300  and  _303
REMARK  121  A    between atoms: _303  and  _304
REMARK  122  A    between atoms: _304  and  _305
REMARK  123  A    between atoms: _308  and  _310
REMARK  124  A    between atoms: _310  and  _311
REMARK  125  A    between atoms: _310  and  _313
REMARK  126  A    between atoms: _313  and  _314
REMARK  127  A    between atoms: _319  and  _321
REMARK  128  A    between atoms: _321  and  _322
REMARK  129  A    between atoms: _321  and  _324
REMARK  130  A    between atoms: _324  and  _325
REMARK  131  A    between atoms: _328  and  _330
REMARK  132  A    between atoms: _330  and  _331
REMARK  133  A    between atoms: _330  and  _333
REMARK  134  A    between atoms: _333  and  _334
REMARK  135  A    between atoms: _344  and  _346
REMARK  136  A    between atoms: _346  and  _347
REMARK  137  A    between atoms: _346  and  _349
REMARK  138  A    between atoms: _349  and  _350
REMARK  139  A    between atoms: _350  and  _351
REMARK  140  A    between atoms: _353  and  _355
REMARK  141  A    between atoms: _355  and  _356
REMARK  142  A    between atoms: _355  and  _358
REMARK  143  A    between atoms: _358  and  _359
REMARK  144  A    between atoms: _359  and  _360
REMARK  145  A    between atoms: _360  and  _361
REMARK  146  A    between atoms: _361  and  _362
REMARK  147  A    between atoms: _366  and  _368
REMARK  148  A    between atoms: _368  and  _369
REMARK  149  A    between atoms: _372  and  _374
REMARK  150  A    between atoms: _374  and  _375
REMARK  151  A    between atoms: _374  and  _377
REMARK  152  A    between atoms: _377  and  _378
REMARK  153  A    between atoms: _378  and  _379
REMARK  154  A    between atoms: _379  and  _380
REMARK  155  A    between atoms: _389  and  _391
REMARK  156  A    between atoms: _391  and  _392
REMARK  157  A    between atoms: _391  and  _394
REMARK  158  A    between atoms: _394  and  _395
REMARK  159  A    between atoms: _398  and  _400
REMARK  160  A    between atoms: _400  and  _401
REMARK  161  A    between atoms: _400  and  _403
REMARK  162  A    between atoms: _403  and  _404
REMARK  163  A    between atoms: _414  and  _416
REMARK  164  A    between atoms: _416  and  _417
REMARK  165  A    between atoms: _416  and  _419
REMARK  166  A    between atoms: _419  and  _420
REMARK  167  A    between atoms: _426  and  _428
REMARK  168  A    between atoms: _428  and  _429
REMARK  169  A    between atoms: _432  and  _434
REMARK  170  A    between atoms: _434  and  _435
REMARK  171  A    between atoms: _434  and  _437
REMARK  172  A    between atoms: _437  and  _438
REMARK  173  A    between atoms: _440  and  _442
REMARK  174  A    between atoms: _442  and  _443
REMARK  175  A    between atoms: _442  and  _445
REMARK  176  A    between atoms: _445  and  _446
REMARK  177  A    between atoms: _449  and  _451
REMARK  178  A    between atoms: _451  and  _452
REMARK  179  A    between atoms: _455  and  _457
REMARK  180  A    between atoms: _457  and  _458
REMARK  181  A    between atoms: _457  and  _460
REMARK  182  A    between atoms: _460  and  _461
REMARK  183  A    between atoms: _464  and  _466
REMARK  184  A    between atoms: _466  and  _467
REMARK  185  A    between atoms: _466  and  _469
REMARK  186  A    between atoms: _469  and  _470
REMARK  187  A    between atoms: _473  and  _475
REMARK  188  A    between atoms: _475  and  _476
REMARK  189  A    between atoms: _475  and  _478
REMARK  190  A    between atoms: _478  and  _479
REMARK  191  A    between atoms: _479  and  _480
REMARK  192  A    between atoms: _480  and  _481
REMARK  193  A    between atoms: _490  and  _492
REMARK  194  A    between atoms: _492  and  _493
REMARK  195  A    between atoms: _492  and  _495
REMARK  196  A    between atoms: _495  and  _496
REMARK  197  A    between atoms: _496  and  _497
REMARK  198  A    between atoms: _502  and  _504
REMARK  199  A    between atoms: _504  and  _505
REMARK  200  A    between atoms: _504  and  _507
REMARK  201  A    between atoms: _507  and  _508
REMARK  202  A    between atoms: _508  and  _509
REMARK  203  A    between atoms: _509  and  _510
REMARK  204  A    between atoms: _520  and  _521
REMARK  205  A    between atoms: _526  and  _528
REMARK  206  A    between atoms: _528  and  _529
REMARK  207  A    between atoms: _528  and  _531
REMARK  208  A    between atoms: _531  and  _532
REMARK  209  A    between atoms: _535  and  _537
REMARK  210  A    between atoms: _537  and  _538
REMARK  211  A    between atoms: _537  and  _540
REMARK  212  A    between atoms: _540  and  _541
REMARK  213  A    between atoms: _547  and  _548
REMARK  214  A    between atoms: _553  and  _555
REMARK  215  A    between atoms: _555  and  _556
REMARK  216  A    between atoms: _555  and  _558
REMARK  217  A    between atoms: _561  and  _563
REMARK  218  A    between atoms: _563  and  _564
REMARK  219  A    between atoms: _563  and  _566
REMARK  220  A    between atoms: _566  and  _567
REMARK  221  A    between atoms: _572  and  _574
REMARK  222  A    between atoms: _574  and  _575
REMARK  223  A    between atoms: _574  and  _577
REMARK  224  A    between atoms: _577  and  _578
REMARK  225  A    between atoms: _583  and  _585
REMARK  226  A    between atoms: _585  and  _586
REMARK  227  A    between atoms: _585  and  _588
REMARK  228  A    between atoms: _588  and  _589
REMARK  229  A    between atoms: _589  and  _590
REMARK  230  A    between atoms: _592  and  _594
REMARK  231  A    between atoms: _594  and  _595
REMARK  232  A    between atoms: _594  and  _597
REMARK  233  A    between atoms: _597  and  _598
REMARK  234  A    between atoms: _603  and  _604
REMARK  235  A    between atoms: _606  and  _608
REMARK  236  A    between atoms: _608  and  _609
REMARK  237  A    between atoms: _608  and  _611
REMARK  238  A    between atoms: _611  and  _612
REMARK  239  A    between atoms: _612  and  _613
REMARK  240  A    between atoms: _618  and  _620
REMARK  241  A    between atoms: _620  and  _621
REMARK  242  A    between atoms: _620  and  _623
REMARK  243  A    between atoms: _623  and  _624
REMARK  244  A    between atoms: _628  and  _629
REMARK  245  A    between atoms: _634  and  _636
REMARK  246  A    between atoms: _636  and  _637
REMARK  247  A    between atoms: _636  and  _639
REMARK  248  A    between atoms: _639  and  _640
REMARK  249  A    between atoms: _646  and  _648
REMARK  250  A    between atoms: _648  and  _649
REMARK  251  A    between atoms: _648  and  _651
REMARK  252  A    between atoms: _651  and  _652
REMARK  253  A    between atoms: _652  and  _653
REMARK  254  A    between atoms: _658  and  _660
REMARK  255  A    between atoms: _660  and  _661
REMARK  256  A    between atoms: _660  and  _663
REMARK  257  A    between atoms: _663  and  _664
REMARK  258  A    between atoms: _667  and  _669
REMARK  259  A    between atoms: _669  and  _670
REMARK  260  A    between atoms: _669  and  _672
REMARK  261  A    between atoms: _672  and  _673
REMARK  262  A    between atoms: _678  and  _679
REMARK  263  A    between atoms: _681  and  _683
REMARK  264  A    between atoms: _683  and  _684
REMARK  265  A    between atoms: _683  and  _686
REMARK  266  A    between atoms: _686  and  _687
REMARK  267  A    between atoms: _692  and  _693
REMARK  268  A    between atoms: _695  and  _697
REMARK  269  A    between atoms: _697  and  _698
REMARK  270  A    between atoms: _697  and  _700
REMARK  271  A    between atoms: _700  and  _701
REMARK  272  A    between atoms: _701  and  _702
REMARK  273  A    between atoms: _705  and  _707
REMARK  274  A    between atoms: _707  and  _708
REMARK  275  A    between atoms: _707  and  _710
REMARK  276  A    between atoms: _710  and  _711
REMARK  277  A    between atoms: _711  and  _712
REMARK  278  A    between atoms: _712  and  _713
REMARK  279  A    between atoms: _722  and  _724
REMARK  280  A    between atoms: _724  and  _725
REMARK  281  A    between atoms: _724  and  _727
REMARK  282  A    between atoms: _727  and  _728
REMARK  283  A    between atoms: _738  and  _740
REMARK  284  A    between atoms: _740  and  _741
REMARK  285  A    between atoms: _740  and  _743
REMARK  286  A    between atoms: _743  and  _744
REMARK  287  A    between atoms: _747  and  _749
REMARK  288  A    between atoms: _749  and  _750
REMARK  289  A    between atoms: _753  and  _755
REMARK  290  A    between atoms: _755  and  _756
REMARK  291  A    between atoms: _755  and  _758
REMARK  292  A    between atoms: _758  and  _759
REMARK  293  A    between atoms: _762  and  _764
REMARK  294  A    between atoms: _764  and  _765
REMARK  295  A    between atoms: _764  and  _767
REMARK  296  A    between atoms: _767  and  _768
REMARK  297  A    between atoms: _768  and  _769
REMARK  298  A    between atoms: _769  and  _770
REMARK  299  A    between atoms: _770  and  _771
REMARK  300  A    between atoms: _775  and  _777
REMARK  301  A    between atoms: _777  and  _778
REMARK  302  A    between atoms: _777  and  _780
REMARK  303  A    between atoms: _780  and  _781
REMARK                            x       y       z     vdW  Elec       q    Type
REMARK                         _______ _______ _______ _____ _____    ______ ____
ROOT
ATOM      1  O   HOH     1      -9.982 -11.981   5.011  0.00  0.00    +0.000 OA
ENDROOT
TORSDOF 0
REMARK  Name = ../refined-set-2016/1y3p/1y3p_pocket.pdb
REMARK  303 active torsions:
REMARK  status: ('A' for Active; 'I' for Inactive)
REMARK    1  A    between atoms: _1  and  _3
REMARK    2  A    between atoms: _3  and  _4
REMARK    3  A    between atoms: _3  and  _6
REMARK    4  A    between atoms: _6  and  _7
REMARK    5  A    between atoms: _12  and  _14
REMARK    6  A    between atoms: _14  and  _15
REMARK    7  A    between atoms: _14  and  _17
REMARK    8  A    between atoms: _17  and  _18
REMARK    9  A    between atoms: _24  and  _26
REMARK   10  A    between atoms: _26  and  _27
REMARK   11  A    between atoms: _26  and  _29
REMARK   12  A    between atoms: _29  and  _30
REMARK   13  A    between atoms: _30  and  _31
REMARK   14  A    between atoms: _31  and  _32
REMARK   15  A    between atoms: _41  and  _43
REMARK   16  A    between atoms: _43  and  _44
REMARK   17  A    between atoms: _43  and  _46
REMARK   18  A    between atoms: _46  and  _47
REMARK   19  A    between atoms: _50  and  _52
REMARK   20  A    between atoms: _52  and  _53
REMARK   21  A    between atoms: _52  and  _55
REMARK   22  A    between atoms: _55  and  _56
REMARK   23  A    between atoms: _56  and  _57
REMARK   24  A    between atoms: _57  and  _58
REMARK   25  A    between atoms: _58  and  _59
REMARK   26  A    between atoms: _63  and  _65
REMARK   27  A    between atoms: _65  and  _66
REMARK   28  A    between atoms: _65  and  _68
REMARK   29  A    between atoms: _68  and  _69
REMARK   30  A    between atoms: _79  and  _81
REMARK   31  A    between atoms: _81  and  _82
REMARK   32  A    between atoms: _81  and  _84
REMARK   33  A    between atoms: _84  and  _85
REMARK   34  A    between atoms: _88  and  _90
REMARK   35  A    between atoms: _90  and  _91
REMARK   36  A    between atoms: _90  and  _93
REMARK   37  A    between atoms: _93  and  _94
REMARK   38  A    between atoms: _99  and  _101
REMARK   39  A    between atoms: _101  and  _102
REMARK   40  A    between atoms: _101  and  _104
REMARK   41  A    between atoms: _104  and  _105
REMARK   42  A    between atoms: _107  and  _109
REMARK   43  A    between atoms: _109  and  _110
REMARK   44  A    between atoms: _109  and  _112
REMARK   45  A    between atoms: _112  and  _113
REMARK   46  A    between atoms: _113  and  _114
REMARK   47  A    between atoms: _119  and  _121
REMARK   48  A    between atoms: _121  and  _122
REMARK   49  A    between atoms: _121  and  _124
REMARK   50  A    between atoms: _124  and  _125
REMARK   51  A    between atoms: _125  and  _126
REMARK   52  A    between atoms: _129  and  _131
REMARK   53  A    between atoms: _131  and  _132
REMARK   54  A    between atoms: _134  and  _136
REMARK   55  A    between atoms: _136  and  _137
REMARK   56  A    between atoms: _136  and  _139
REMARK   57  A    between atoms: _139  and  _140
REMARK   58  A    between atoms: _143  and  _145
REMARK   59  A    between atoms: _145  and  _146
REMARK   60  A    between atoms: _145  and  _148
REMARK   61  A    between atoms: _148  and  _149
REMARK   62  A    between atoms: _154  and  _156
REMARK   63  A    between atoms: _156  and  _157
REMARK   64  A    between atoms: _156  and  _159
REMARK   65  A    between atoms: _159  and  _160
REMARK   66  A    between atoms: _163  and  _165
REMARK   67  A    between atoms: _165  and  _166
REMARK   68  A    between atoms: _165  and  _168
REMARK   69  A    between atoms: _168  and  _169
REMARK   70  A    between atoms: _169  and  _170
REMARK   71  A    between atoms: _170  and  _171
REMARK   72  A    between atoms: _171  and  _172
REMARK   73  A    between atoms: _176  and  _178
REMARK   74  A    between atoms: _178  and  _179
REMARK   75  A    between atoms: _178  and  _181
REMARK   76  A    between atoms: _181  and  _182
REMARK   77  A    between atoms: _187  and  _188
REMARK   78  A    between atoms: _191  and  _192
REMARK   79  A    between atoms: _197  and  _199
REMARK   80  A    between atoms: _199  and  _200
REMARK   81  A    between atoms: _199  and  _202
REMARK   82  A    between atoms: _202  and  _203
REMARK   83  A    between atoms: _206  and  _208
REMARK   84  A    between atoms: _208  and  _209
REMARK   85  A    between atoms: _211  and  _213
REMARK   86  A    between atoms: _213  and  _214
REMARK   87  A    between atoms: _213  and  _216
REMARK   88  A    between atoms: _219  and  _221
REMARK   89  A    between atoms: _221  and  _222
REMARK   90  A    between atoms: _221  and  _224
REMARK   91  A    between atoms: _224  and  _225
REMARK   92  A    between atoms: _227  and  _229
REMARK   93  A    between atoms: _229  and  _230
REMARK   94  A    between atoms: _229  and  _232
REMARK   95  A    between atoms: _232  and  _233
REMARK   96  A    between atoms: _233  and  _234
REMARK   97  A    between atoms: _234  and  _235
REMARK   98  A    between atoms: _244  and  _246
REMARK   99  A    between atoms: _246  and  _247
REMARK  100  A    between atoms: _246  and  _249
REMARK  101  A    between atoms: _249  and  _250
REMARK  102  A    between atoms: _255  and  _257
REMARK  103  A    between atoms: _257  and  _258
REMARK  104  A    between atoms: _257  and  _260
REMARK  105  A    between atoms: _260  and  _261
REMARK  106  A    between atoms: _261  and  _262
REMARK  107  A    between atoms: _262  and  _263
REMARK  108  A    between atoms: _272  and  _274
REMARK  109  A    between atoms: _274  and  _275
REMARK  110  A    between atoms: _274  and  _277
REMARK  111  A    between atoms: _277  and  _278
REMARK  112  A    between atoms: _282  and  _283
REMARK  113  A    between atoms: _288  and  _290
REMARK  114  A    between atoms: _290  and  _291
REMARK  115  A    between atoms: _290  and  _293
REMARK  116  A    between atoms: _293  and  _294
REMARK  117  A    between atoms: _294  and  _295
REMARK  118  A    between atoms: _298  and  _300
REMARK  119  A    between atoms: _300  and  _301
REMARK  120  A    between atoms: _300  and  _303
REMARK  121  A    between atoms: _303  and  _304
REMARK  122  A    between atoms: _304  and  _305
REMARK  123  A    between atoms: _308  and  _310
REMARK  124  A    between atoms: _310  and  _311
REMARK  125  A    between atoms: _310  and  _313
REMARK  126  A    between atoms: _313  and  _314
REMARK  127  A    between atoms: _319  and  _321
REMARK  128  A    between atoms: _321  and  _322
REMARK  129  A    between atoms: _321  and  _324
REMARK  130  A    between atoms: _324  and  _325
REMARK  131  A    between atoms: _328  and  _330
REMARK  132  A    between atoms: _330  and  _331
REMARK  133  A    between atoms: _330  and  _333
REMARK  134  A    between atoms: _333  and  _334
REMARK  135  A    between atoms: _344  and  _346
REMARK  136  A    between atoms: _346  and  _347
REMARK  137  A    between atoms: _346  and  _349
REMARK  138  A    between atoms: _349  and  _350
REMARK  139  A    between atoms: _350  and  _351
REMARK  140  A    between atoms: _353  and  _355
REMARK  141  A    between atoms: _355  and  _356
REMARK  142  A    between atoms: _355  and  _358
REMARK  143  A    between atoms: _358  and  _359
REMARK  144  A    between atoms: _359  and  _360
REMARK  145  A    between atoms: _360  and  _361
REMARK  146  A    between atoms: _361  and  _362
REMARK  147  A    between atoms: _366  and  _368
REMARK  148  A    between atoms: _368  and  _369
REMARK  149  A    between atoms: _372  and  _374
REMARK  150  A    between atoms: _374  and  _375
REMARK  151  A    between atoms: _374  and  _377
REMARK  152  A    between atoms: _377  and  _378
REMARK  153  A    between atoms: _378  and  _379
REMARK  154  A    between atoms: _379  and  _380
REMARK  155  A    between atoms: _389  and  _391
REMARK  156  A    between atoms: _391  and  _392
REMARK  157  A    between atoms: _391  and  _394
REMARK  158  A    between atoms: _394  and  _395
REMARK  159  A    between atoms: _398  and  _400
REMARK  160  A    between atoms: _400  and  _401
REMARK  161  A    between atoms: _400  and  _403
REMARK  162  A    between atoms: _403  and  _404
REMARK  163  A    between atoms: _414  and  _416
REMARK  164  A    between atoms: _416  and  _417
REMARK  165  A    between atoms: _416  and  _419
REMARK  166  A    between atoms: _419  and  _420
REMARK  167  A    between atoms: _426  and  _428
REMARK  168  A    between atoms: _428  and  _429
REMARK  169  A    between atoms: _432  and  _434
REMARK  170  A    between atoms: _434  and  _435
REMARK  171  A    between atoms: _434  and  _437
REMARK  172  A    between atoms: _437  and  _438
REMARK  173  A    between atoms: _440  and  _442
REMARK  174  A    between atoms: _442  and  _443
REMARK  175  A    between atoms: _442  and  _445
REMARK  176  A    between atoms: _445  and  _446
REMARK  177  A    between atoms: _449  and  _451
REMARK  178  A    between atoms: _451  and  _452
REMARK  179  A    between atoms: _455  and  _457
REMARK  180  A    between atoms: _457  and  _458
REMARK  181  A    between atoms: _457  and  _460
REMARK  182  A    between atoms: _460  and  _461
REMARK  183  A    between atoms: _464  and  _466
REMARK  184  A    between atoms: _466  and  _467
REMARK  185  A    between atoms: _466  and  _469
REMARK  186  A    between atoms: _469  and  _470
REMARK  187  A    between atoms: _473  and  _475
REMARK  188  A    between atoms: _475  and  _476
REMARK  189  A    between atoms: _475  and  _478
REMARK  190  A    between atoms: _478  and  _479
REMARK  191  A    between atoms: _479  and  _480
REMARK  192  A    between atoms: _480  and  _481
REMARK  193  A    between atoms: _490  and  _492
REMARK  194  A    between atoms: _492  and  _493
REMARK  195  A    between atoms: _492  and  _495
REMARK  196  A    between atoms: _495  and  _496
REMARK  197  A    between atoms: _496  and  _497
REMARK  198  A    between atoms: _502  and  _504
REMARK  199  A    between atoms: _504  and  _505
REMARK  200  A    between atoms: _504  and  _507
REMARK  201  A    between atoms: _507  and  _508
REMARK  202  A    between atoms: _508  and  _509
REMARK  203  A    between atoms: _509  and  _510
REMARK  204  A    between atoms: _520  and  _521
REMARK  205  A    between atoms: _526  and  _528
REMARK  206  A    between atoms: _528  and  _529
REMARK  207  A    between atoms: _528  and  _531
REMARK  208  A    between atoms: _531  and  _532
REMARK  209  A    between atoms: _535  and  _537
REMARK  210  A    between atoms: _537  and  _538
REMARK  211  A    between atoms: _537  and  _540
REMARK  212  A    between atoms: _540  and  _541
REMARK  213  A    between atoms: _547  and  _548
REMARK  214  A    between atoms: _553  and  _555
REMARK  215  A    between atoms: _555  and  _556
REMARK  216  A    between atoms: _555  and  _558
REMARK  217  A    between atoms: _561  and  _563
REMARK  218  A    between atoms: _563  and  _564
REMARK  219  A    between atoms: _563  and  _566
REMARK  220  A    between atoms: _566  and  _567
REMARK  221  A    between atoms: _572  and  _574
REMARK  222  A    between atoms: _574  and  _575
REMARK  223  A    between atoms: _574  and  _577
REMARK  224  A    between atoms: _577  and  _578
REMARK  225  A    between atoms: _583  and  _585
REMARK  226  A    between atoms: _585  and  _586
REMARK  227  A    between atoms: _585  and  _588
REMARK  228  A    between atoms: _588  and  _589
REMARK  229  A    between atoms: _589  and  _590
REMARK  230  A    between atoms: _592  and  _594
REMARK  231  A    between atoms: _594  and  _595
REMARK  232  A    between atoms: _594  and  _597
REMARK  233  A    between atoms: _597  and  _598
REMARK  234  A    between atoms: _603  and  _604
REMARK  235  A    between atoms: _606  and  _608
REMARK  236  A    between atoms: _608  and  _609
REMARK  237  A    between atoms: _608  and  _611
REMARK  238  A    between atoms: _611  and  _612
REMARK  239  A    between atoms: _612  and  _613
REMARK  240  A    between atoms: _618  and  _620
REMARK  241  A    between atoms: _620  and  _621
REMARK  242  A    between atoms: _620  and  _623
REMARK  243  A    between atoms: _623  and  _624
REMARK  244  A    between atoms: _628  and  _629
REMARK  245  A    between atoms: _634  and  _636
REMARK  246  A    between atoms: _636  and  _637
REMARK  247  A    between atoms: _636  and  _639
REMARK  248  A    between atoms: _639  and  _640
REMARK  249  A    between atoms: _646  and  _648
REMARK  250  A    between atoms: _648  and  _649
REMARK  251  A    between atoms: _648  and  _651
REMARK  252  A    between atoms: _651  and  _652
REMARK  253  A    between atoms: _652  and  _653
REMARK  254  A    between atoms: _658  and  _660
REMARK  255  A    between atoms: _660  and  _661
REMARK  256  A    between atoms: _660  and  _663
REMARK  257  A    between atoms: _663  and  _664
REMARK  258  A    between atoms: _667  and  _669
REMARK  259  A    between atoms: _669  and  _670
REMARK  260  A    between atoms: _669  and  _672
REMARK  261  A    between atoms: _672  and  _673
REMARK  262  A    between atoms: _678  and  _679
REMARK  263  A    between atoms: _681  and  _683
REMARK  264  A    between atoms: _683  and  _684
REMARK  265  A    between atoms: _683  and  _686
REMARK  266  A    between atoms: _686  and  _687
REMARK  267  A    between atoms: _692  and  _693
REMARK  268  A    between atoms: _695  and  _697
REMARK  269  A    between atoms: _697  and  _698
REMARK  270  A    between atoms: _697  and  _700
REMARK  271  A    between atoms: _700  and  _701
REMARK  272  A    between atoms: _701  and  _702
REMARK  273  A    between atoms: _705  and  _707
REMARK  274  A    between atoms: _707  and  _708
REMARK  275  A    between atoms: _707  and  _710
REMARK  276  A    between atoms: _710  and  _711
REMARK  277  A    between atoms: _711  and  _712
REMARK  278  A    between atoms: _712  and  _713
REMARK  279  A    between atoms: _722  and  _724
REMARK  280  A    between atoms: _724  and  _725
REMARK  281  A    between atoms: _724  and  _727
REMARK  282  A    between atoms: _727  and  _728
REMARK  283  A    between atoms: _738  and  _740
REMARK  284  A    between atoms: _740  and  _741
REMARK  285  A    between atoms: _740  and  _743
REMARK  286  A    between atoms: _743  and  _744
REMARK  287  A    between atoms: _747  and  _749
REMARK  288  A    between atoms: _749  and  _750
REMARK  289  A    between atoms: _753  and  _755
REMARK  290  A    between atoms: _755  and  _756
REMARK  291  A    between atoms: _755  and  _758
REMARK  292  A    between atoms: _758  and  _759
REMARK  293  A    between atoms: _762  and  _764
REMARK  294  A    between atoms: _764  and  _765
REMARK  295  A    between atoms: _764  and  _767
REMARK  296  A    between atoms: _767  and  _768
REMARK  297  A    between atoms: _768  and  _769
REMARK  298  A    between atoms: _769  and  _770
REMARK  299  A    between atoms: _770  and  _771
REMARK  300  A    between atoms: _775  and  _777
REMARK  301  A    between atoms: _777  and  _778
REMARK  302  A    between atoms: _777  and  _780
REMARK  303  A    between atoms: _780  and  _781
REMARK                            x       y       z     vdW  Elec       q    Type
REMARK                         _______ _______ _______ _____ _____    ______ ____
ROOT
ATOM      1  O   HOH     1     -13.939  -5.382  -1.281  0.00  0.00    +0.000 OA
ENDROOT
TORSDOF 0
REMARK  Name = ../refined-set-2016/1y3p/1y3p_pocket.pdb
REMARK  303 active torsions:
REMARK  status: ('A' for Active; 'I' for Inactive)
REMARK    1  A    between atoms: _1  and  _3
REMARK    2  A    between atoms: _3  and  _4
REMARK    3  A    between atoms: _3  and  _6
REMARK    4  A    between atoms: _6  and  _7
REMARK    5  A    between atoms: _12  and  _14
REMARK    6  A    between atoms: _14  and  _15
REMARK    7  A    between atoms: _14  and  _17
REMARK    8  A    between atoms: _17  and  _18
REMARK    9  A    between atoms: _24  and  _26
REMARK   10  A    between atoms: _26  and  _27
REMARK   11  A    between atoms: _26  and  _29
REMARK   12  A    between atoms: _29  and  _30
REMARK   13  A    between atoms: _30  and  _31
REMARK   14  A    between atoms: _31  and  _32
REMARK   15  A    between atoms: _41  and  _43
REMARK   16  A    between atoms: _43  and  _44
REMARK   17  A    between atoms: _43  and  _46
REMARK   18  A    between atoms: _46  and  _47
REMARK   19  A    between atoms: _50  and  _52
REMARK   20  A    between atoms: _52  and  _53
REMARK   21  A    between atoms: _52  and  _55
REMARK   22  A    between atoms: _55  and  _56
REMARK   23  A    between atoms: _56  and  _57
REMARK   24  A    between atoms: _57  and  _58
REMARK   25  A    between atoms: _58  and  _59
REMARK   26  A    between atoms: _63  and  _65
REMARK   27  A    between atoms: _65  and  _66
REMARK   28  A    between atoms: _65  and  _68
REMARK   29  A    between atoms: _68  and  _69
REMARK   30  A    between atoms: _79  and  _81
REMARK   31  A    between atoms: _81  and  _82
REMARK   32  A    between atoms: _81  and  _84
REMARK   33  A    between atoms: _84  and  _85
REMARK   34  A    between atoms: _88  and  _90
REMARK   35  A    between atoms: _90  and  _91
REMARK   36  A    between atoms: _90  and  _93
REMARK   37  A    between atoms: _93  and  _94
REMARK   38  A    between atoms: _99  and  _101
REMARK   39  A    between atoms: _101  and  _102
REMARK   40  A    between atoms: _101  and  _104
REMARK   41  A    between atoms: _104  and  _105
REMARK   42  A    between atoms: _107  and  _109
REMARK   43  A    between atoms: _109  and  _110
REMARK   44  A    between atoms: _109  and  _112
REMARK   45  A    between atoms: _112  and  _113
REMARK   46  A    between atoms: _113  and  _114
REMARK   47  A    between atoms: _119  and  _121
REMARK   48  A    between atoms: _121  and  _122
REMARK   49  A    between atoms: _121  and  _124
REMARK   50  A    between atoms: _124  and  _125
REMARK   51  A    between atoms: _125  and  _126
REMARK   52  A    between atoms: _129  and  _131
REMARK   53  A    between atoms: _131  and  _132
REMARK   54  A    between atoms: _134  and  _136
REMARK   55  A    between atoms: _136  and  _137
REMARK   56  A    between atoms: _136  and  _139
REMARK   57  A    between atoms: _139  and  _140
REMARK   58  A    between atoms: _143  and  _145
REMARK   59  A    between atoms: _145  and  _146
REMARK   60  A    between atoms: _145  and  _148
REMARK   61  A    between atoms: _148  and  _149
REMARK   62  A    between atoms: _154  and  _156
REMARK   63  A    between atoms: _156  and  _157
REMARK   64  A    between atoms: _156  and  _159
REMARK   65  A    between atoms: _159  and  _160
REMARK   66  A    between atoms: _163  and  _165
REMARK   67  A    between atoms: _165  and  _166
REMARK   68  A    between atoms: _165  and  _168
REMARK   69  A    between atoms: _168  and  _169
REMARK   70  A    between atoms: _169  and  _170
REMARK   71  A    between atoms: _170  and  _171
REMARK   72  A    between atoms: _171  and  _172
REMARK   73  A    between atoms: _176  and  _178
REMARK   74  A    between atoms: _178  and  _179
REMARK   75  A    between atoms: _178  and  _181
REMARK   76  A    between atoms: _181  and  _182
REMARK   77  A    between atoms: _187  and  _188
REMARK   78  A    between atoms: _191  and  _192
REMARK   79  A    between atoms: _197  and  _199
REMARK   80  A    between atoms: _199  and  _200
REMARK   81  A    between atoms: _199  and  _202
REMARK   82  A    between atoms: _202  and  _203
REMARK   83  A    between atoms: _206  and  _208
REMARK   84  A    between atoms: _208  and  _209
REMARK   85  A    between atoms: _211  and  _213
REMARK   86  A    between atoms: _213  and  _214
REMARK   87  A    between atoms: _213  and  _216
REMARK   88  A    between atoms: _219  and  _221
REMARK   89  A    between atoms: _221  and  _222
REMARK   90  A    between atoms: _221  and  _224
REMARK   91  A    between atoms: _224  and  _225
REMARK   92  A    between atoms: _227  and  _229
REMARK   93  A    between atoms: _229  and  _230
REMARK   94  A    between atoms: _229  and  _232
REMARK   95  A    between atoms: _232  and  _233
REMARK   96  A    between atoms: _233  and  _234
REMARK   97  A    between atoms: _234  and  _235
REMARK   98  A    between atoms: _244  and  _246
REMARK   99  A    between atoms: _246  and  _247
REMARK  100  A    between atoms: _246  and  _249
REMARK  101  A    between atoms: _249  and  _250
REMARK  102  A    between atoms: _255  and  _257
REMARK  103  A    between atoms: _257  and  _258
REMARK  104  A    between atoms: _257  and  _260
REMARK  105  A    between atoms: _260  and  _261
REMARK  106  A    between atoms: _261  and  _262
REMARK  107  A    between atoms: _262  and  _263
REMARK  108  A    between atoms: _272  and  _274
REMARK  109  A    between atoms: _274  and  _275
REMARK  110  A    between atoms: _274  and  _277
REMARK  111  A    between atoms: _277  and  _278
REMARK  112  A    between atoms: _282  and  _283
REMARK  113  A    between atoms: _288  and  _290
REMARK  114  A    between atoms: _290  and  _291
REMARK  115  A    between atoms: _290  and  _293
REMARK  116  A    between atoms: _293  and  _294
REMARK  117  A    between atoms: _294  and  _295
REMARK  118  A    between atoms: _298  and  _300
REMARK  119  A    between atoms: _300  and  _301
REMARK  120  A    between atoms: _300  and  _303
REMARK  121  A    between atoms: _303  and  _304
REMARK  122  A    between atoms: _304  and  _305
REMARK  123  A    between atoms: _308  and  _310
REMARK  124  A    between atoms: _310  and  _311
REMARK  125  A    between atoms: _310  and  _313
REMARK  126  A    between atoms: _313  and  _314
REMARK  127  A    between atoms: _319  and  _321
REMARK  128  A    between atoms: _321  and  _322
REMARK  129  A    between atoms: _321  and  _324
REMARK  130  A    between atoms: _324  and  _325
REMARK  131  A    between atoms: _328  and  _330
REMARK  132  A    between atoms: _330  and  _331
REMARK  133  A    between atoms: _330  and  _333
REMARK  134  A    between atoms: _333  and  _334
REMARK  135  A    between atoms: _344  and  _346
REMARK  136  A    between atoms: _346  and  _347
REMARK  137  A    between atoms: _346  and  _349
REMARK  138  A    between atoms: _349  and  _350
REMARK  139  A    between atoms: _350  and  _351
REMARK  140  A    between atoms: _353  and  _355
REMARK  141  A    between atoms: _355  and  _356
REMARK  142  A    between atoms: _355  and  _358
REMARK  143  A    between atoms: _358  and  _359
REMARK  144  A    between atoms: _359  and  _360
REMARK  145  A    between atoms: _360  and  _361
REMARK  146  A    between atoms: _361  and  _362
REMARK  147  A    between atoms: _366  and  _368
REMARK  148  A    between atoms: _368  and  _369
REMARK  149  A    between atoms: _372  and  _374
REMARK  150  A    between atoms: _374  and  _375
REMARK  151  A    between atoms: _374  and  _377
REMARK  152  A    between atoms: _377  and  _378
REMARK  153  A    between atoms: _378  and  _379
REMARK  154  A    between atoms: _379  and  _380
REMARK  155  A    between atoms: _389  and  _391
REMARK  156  A    between atoms: _391  and  _392
REMARK  157  A    between atoms: _391  and  _394
REMARK  158  A    between atoms: _394  and  _395
REMARK  159  A    between atoms: _398  and  _400
REMARK  160  A    between atoms: _400  and  _401
REMARK  161  A    between atoms: _400  and  _403
REMARK  162  A    between atoms: _403  and  _404
REMARK  163  A    between atoms: _414  and  _416
REMARK  164  A    between atoms: _416  and  _417
REMARK  165  A    between atoms: _416  and  _419
REMARK  166  A    between atoms: _419  and  _420
REMARK  167  A    between atoms: _426  and  _428
REMARK  168  A    between atoms: _428  and  _429
REMARK  169  A    between atoms: _432  and  _434
REMARK  170  A    between atoms: _434  and  _435
REMARK  171  A    between atoms: _434  and  _437
REMARK  172  A    between atoms: _437  and  _438
REMARK  173  A    between atoms: _440  and  _442
REMARK  174  A    between atoms: _442  and  _443
REMARK  175  A    between atoms: _442  and  _445
REMARK  176  A    between atoms: _445  and  _446
REMARK  177  A    between atoms: _449  and  _451
REMARK  178  A    between atoms: _451  and  _452
REMARK  179  A    between atoms: _455  and  _457
REMARK  180  A    between atoms: _457  and  _458
REMARK  181  A    between atoms: _457  and  _460
REMARK  182  A    between atoms: _460  and  _461
REMARK  183  A    between atoms: _464  and  _466
REMARK  184  A    between atoms: _466  and  _467
REMARK  185  A    between atoms: _466  and  _469
REMARK  186  A    between atoms: _469  and  _470
REMARK  187  A    between atoms: _473  and  _475
REMARK  188  A    between atoms: _475  and  _476
REMARK  189  A    between atoms: _475  and  _478
REMARK  190  A    between atoms: _478  and  _479
REMARK  191  A    between atoms: _479  and  _480
REMARK  192  A    between atoms: _480  and  _481
REMARK  193  A    between atoms: _490  and  _492
REMARK  194  A    between atoms: _492  and  _493
REMARK  195  A    between atoms: _492  and  _495
REMARK  196  A    between atoms: _495  and  _496
REMARK  197  A    between atoms: _496  and  _497
REMARK  198  A    between atoms: _502  and  _504
REMARK  199  A    between atoms: _504  and  _505
REMARK  200  A    between atoms: _504  and  _507
REMARK  201  A    between atoms: _507  and  _508
REMARK  202  A    between atoms: _508  and  _509
REMARK  203  A    between atoms: _509  and  _510
REMARK  204  A    between atoms: _520  and  _521
REMARK  205  A    between atoms: _526  and  _528
REMARK  206  A    between atoms: _528  and  _529
REMARK  207  A    between atoms: _528  and  _531
REMARK  208  A    between atoms: _531  and  _532
REMARK  209  A    between atoms: _535  and  _537
REMARK  210  A    between atoms: _537  and  _538
REMARK  211  A    between atoms: _537  and  _540
REMARK  212  A    between atoms: _540  and  _541
REMARK  213  A    between atoms: _547  and  _548
REMARK  214  A    between atoms: _553  and  _555
REMARK  215  A    between atoms: _555  and  _556
REMARK  216  A    between atoms: _555  and  _558
REMARK  217  A    between atoms: _561  and  _563
REMARK  218  A    between atoms: _563  and  _564
REMARK  219  A    between atoms: _563  and  _566
REMARK  220  A    between atoms: _566  and  _567
REMARK  221  A    between atoms: _572  and  _574
REMARK  222  A    between atoms: _574  and  _575
REMARK  223  A    between atoms: _574  and  _577
REMARK  224  A    between atoms: _577  and  _578
REMARK  225  A    between atoms: _583  and  _585
REMARK  226  A    between atoms: _585  and  _586
REMARK  227  A    between atoms: _585  and  _588
REMARK  228  A    between atoms: _588  and  _589
REMARK  229  A    between atoms: _589  and  _590
REMARK  230  A    between atoms: _592  and  _594
REMARK  231  A    between atoms: _594  and  _595
REMARK  232  A    between atoms: _594  and  _597
REMARK  233  A    between atoms: _597  and  _598
REMARK  234  A    between atoms: _603  and  _604
REMARK  235  A    between atoms: _606  and  _608
REMARK  236  A    between atoms: _608  and  _609
REMARK  237  A    between atoms: _608  and  _611
REMARK  238  A    between atoms: _611  and  _612
REMARK  239  A    between atoms: _612  and  _613
REMARK  240  A    between atoms: _618  and  _620
REMARK  241  A    between atoms: _620  and  _621
REMARK  242  A    between atoms: _620  and  _623
REMARK  243  A    between atoms: _623  and  _624
REMARK  244  A    between atoms: _628  and  _629
REMARK  245  A    between atoms: _634  and  _636
REMARK  246  A    between atoms: _636  and  _637
REMARK  247  A    between atoms: _636  and  _639
REMARK  248  A    between atoms: _639  and  _640
REMARK  249  A    between atoms: _646  and  _648
REMARK  250  A    between atoms: _648  and  _649
REMARK  251  A    between atoms: _648  and  _651
REMARK  252  A    between atoms: _651  and  _652
REMARK  253  A    between atoms: _652  and  _653
REMARK  254  A    between atoms: _658  and  _660
REMARK  255  A    between atoms: _660  and  _661
REMARK  256  A    between atoms: _660  and  _663
REMARK  257  A    between atoms: _663  and  _664
REMARK  258  A    between atoms: _667  and  _669
REMARK  259  A    between atoms: _669  and  _670
REMARK  260  A    between atoms: _669  and  _672
REMARK  261  A    between atoms: _672  and  _673
REMARK  262  A    between atoms: _678  and  _679
REMARK  263  A    between atoms: _681  and  _683
REMARK  264  A    between atoms: _683  and  _684
REMARK  265  A    between atoms: _683  and  _686
REMARK  266  A    between atoms: _686  and  _687
REMARK  267  A    between atoms: _692  and  _693
REMARK  268  A    between atoms: _695  and  _697
REMARK  269  A    between atoms: _697  and  _698
REMARK  270  A    between atoms: _697  and  _700
REMARK  271  A    between atoms: _700  and  _701
REMARK  272  A    between atoms: _701  and  _702
REMARK  273  A    between atoms: _705  and  _707
REMARK  274  A    between atoms: _707  and  _708
REMARK  275  A    between atoms: _707  and  _710
REMARK  276  A    between atoms: _710  and  _711
REMARK  277  A    between atoms: _711  and  _712
REMARK  278  A    between atoms: _712  and  _713
REMARK  279  A    between atoms: _722  and  _724
REMARK  280  A    between atoms: _724  and  _725
REMARK  281  A    between atoms: _724  and  _727
REMARK  282  A    between atoms: _727  and  _728
REMARK  283  A    between atoms: _738  and  _740
REMARK  284  A    between atoms: _740  and  _741
REMARK  285  A    between atoms: _740  and  _743
REMARK  286  A    between atoms: _743  and  _744
REMARK  287  A    between atoms: _747  and  _749
REMARK  288  A    between atoms: _749  and  _750
REMARK  289  A    between atoms: _753  and  _755
REMARK  290  A    between atoms: _755  and  _756
REMARK  291  A    between atoms: _755  and  _758
REMARK  292  A    between atoms: _758  and  _759
REMARK  293  A    between atoms: _762  and  _764
REMARK  294  A    between atoms: _764  and  _765
REMARK  295  A    between atoms: _764  and  _767
REMARK  296  A    between atoms: _767  and  _768
REMARK  297  A    between atoms: _768  and  _769
REMARK  298  A    between atoms: _769  and  _770
REMARK  299  A    between atoms: _770  and  _771
REMARK  300  A    between atoms: _775  and  _777
REMARK  301  A    between atoms: _777  and  _778
REMARK  302  A    between atoms: _777  and  _780
REMARK  303  A    between atoms: _780  and  _781
REMARK                            x       y       z     vdW  Elec       q    Type
REMARK                         _______ _______ _______ _____ _____    ______ ____
ROOT
ATOM      1  O   HOH     1     -14.013  -5.029  -4.172  0.00  0.00    +0.000 OA
ENDROOT
TORSDOF 0
REMARK  Name = ../refined-set-2016/1y3p/1y3p_pocket.pdb
REMARK  303 active torsions:
REMARK  status: ('A' for Active; 'I' for Inactive)
REMARK    1  A    between atoms: _1  and  _3
REMARK    2  A    between atoms: _3  and  _4
REMARK    3  A    between atoms: _3  and  _6
REMARK    4  A    between atoms: _6  and  _7
REMARK    5  A    between atoms: _12  and  _14
REMARK    6  A    between atoms: _14  and  _15
REMARK    7  A    between atoms: _14  and  _17
REMARK    8  A    between atoms: _17  and  _18
REMARK    9  A    between atoms: _24  and  _26
REMARK   10  A    between atoms: _26  and  _27
REMARK   11  A    between atoms: _26  and  _29
REMARK   12  A    between atoms: _29  and  _30
REMARK   13  A    between atoms: _30  and  _31
REMARK   14  A    between atoms: _31  and  _32
REMARK   15  A    between atoms: _41  and  _43
REMARK   16  A    between atoms: _43  and  _44
REMARK   17  A    between atoms: _43  and  _46
REMARK   18  A    between atoms: _46  and  _47
REMARK   19  A    between atoms: _50  and  _52
REMARK   20  A    between atoms: _52  and  _53
REMARK   21  A    between atoms: _52  and  _55
REMARK   22  A    between atoms: _55  and  _56
REMARK   23  A    between atoms: _56  and  _57
REMARK   24  A    between atoms: _57  and  _58
REMARK   25  A    between atoms: _58  and  _59
REMARK   26  A    between atoms: _63  and  _65
REMARK   27  A    between atoms: _65  and  _66
REMARK   28  A    between atoms: _65  and  _68
REMARK   29  A    between atoms: _68  and  _69
REMARK   30  A    between atoms: _79  and  _81
REMARK   31  A    between atoms: _81  and  _82
REMARK   32  A    between atoms: _81  and  _84
REMARK   33  A    between atoms: _84  and  _85
REMARK   34  A    between atoms: _88  and  _90
REMARK   35  A    between atoms: _90  and  _91
REMARK   36  A    between atoms: _90  and  _93
REMARK   37  A    between atoms: _93  and  _94
REMARK   38  A    between atoms: _99  and  _101
REMARK   39  A    between atoms: _101  and  _102
REMARK   40  A    between atoms: _101  and  _104
REMARK   41  A    between atoms: _104  and  _105
REMARK   42  A    between atoms: _107  and  _109
REMARK   43  A    between atoms: _109  and  _110
REMARK   44  A    between atoms: _109  and  _112
REMARK   45  A    between atoms: _112  and  _113
REMARK   46  A    between atoms: _113  and  _114
REMARK   47  A    between atoms: _119  and  _121
REMARK   48  A    between atoms: _121  and  _122
REMARK   49  A    between atoms: _121  and  _124
REMARK   50  A    between atoms: _124  and  _125
REMARK   51  A    between atoms: _125  and  _126
REMARK   52  A    between atoms: _129  and  _131
REMARK   53  A    between atoms: _131  and  _132
REMARK   54  A    between atoms: _134  and  _136
REMARK   55  A    between atoms: _136  and  _137
REMARK   56  A    between atoms: _136  and  _139
REMARK   57  A    between atoms: _139  and  _140
REMARK   58  A    between atoms: _143  and  _145
REMARK   59  A    between atoms: _145  and  _146
REMARK   60  A    between atoms: _145  and  _148
REMARK   61  A    between atoms: _148  and  _149
REMARK   62  A    between atoms: _154  and  _156
REMARK   63  A    between atoms: _156  and  _157
REMARK   64  A    between atoms: _156  and  _159
REMARK   65  A    between atoms: _159  and  _160
REMARK   66  A    between atoms: _163  and  _165
REMARK   67  A    between atoms: _165  and  _166
REMARK   68  A    between atoms: _165  and  _168
REMARK   69  A    between atoms: _168  and  _169
REMARK   70  A    between atoms: _169  and  _170
REMARK   71  A    between atoms: _170  and  _171
REMARK   72  A    between atoms: _171  and  _172
REMARK   73  A    between atoms: _176  and  _178
REMARK   74  A    between atoms: _178  and  _179
REMARK   75  A    between atoms: _178  and  _181
REMARK   76  A    between atoms: _181  and  _182
REMARK   77  A    between atoms: _187  and  _188
REMARK   78  A    between atoms: _191  and  _192
REMARK   79  A    between atoms: _197  and  _199
REMARK   80  A    between atoms: _199  and  _200
REMARK   81  A    between atoms: _199  and  _202
REMARK   82  A    between atoms: _202  and  _203
REMARK   83  A    between atoms: _206  and  _208
REMARK   84  A    between atoms: _208  and  _209
REMARK   85  A    between atoms: _211  and  _213
REMARK   86  A    between atoms: _213  and  _214
REMARK   87  A    between atoms: _213  and  _216
REMARK   88  A    between atoms: _219  and  _221
REMARK   89  A    between atoms: _221  and  _222
REMARK   90  A    between atoms: _221  and  _224
REMARK   91  A    between atoms: _224  and  _225
REMARK   92  A    between atoms: _227  and  _229
REMARK   93  A    between atoms: _229  and  _230
REMARK   94  A    between atoms: _229  and  _232
REMARK   95  A    between atoms: _232  and  _233
REMARK   96  A    between atoms: _233  and  _234
REMARK   97  A    between atoms: _234  and  _235
REMARK   98  A    between atoms: _244  and  _246
REMARK   99  A    between atoms: _246  and  _247
REMARK  100  A    between atoms: _246  and  _249
REMARK  101  A    between atoms: _249  and  _250
REMARK  102  A    between atoms: _255  and  _257
REMARK  103  A    between atoms: _257  and  _258
REMARK  104  A    between atoms: _257  and  _260
REMARK  105  A    between atoms: _260  and  _261
REMARK  106  A    between atoms: _261  and  _262
REMARK  107  A    between atoms: _262  and  _263
REMARK  108  A    between atoms: _272  and  _274
REMARK  109  A    between atoms: _274  and  _275
REMARK  110  A    between atoms: _274  and  _277
REMARK  111  A    between atoms: _277  and  _278
REMARK  112  A    between atoms: _282  and  _283
REMARK  113  A    between atoms: _288  and  _290
REMARK  114  A    between atoms: _290  and  _291
REMARK  115  A    between atoms: _290  and  _293
REMARK  116  A    between atoms: _293  and  _294
REMARK  117  A    between atoms: _294  and  _295
REMARK  118  A    between atoms: _298  and  _300
REMARK  119  A    between atoms: _300  and  _301
REMARK  120  A    between atoms: _300  and  _303
REMARK  121  A    between atoms: _303  and  _304
REMARK  122  A    between atoms: _304  and  _305
REMARK  123  A    between atoms: _308  and  _310
REMARK  124  A    between atoms: _310  and  _311
REMARK  125  A    between atoms: _310  and  _313
REMARK  126  A    between atoms: _313  and  _314
REMARK  127  A    between atoms: _319  and  _321
REMARK  128  A    between atoms: _321  and  _322
REMARK  129  A    between atoms: _321  and  _324
REMARK  130  A    between atoms: _324  and  _325
REMARK  131  A    between atoms: _328  and  _330
REMARK  132  A    between atoms: _330  and  _331
REMARK  133  A    between atoms: _330  and  _333
REMARK  134  A    between atoms: _333  and  _334
REMARK  135  A    between atoms: _344  and  _346
REMARK  136  A    between atoms: _346  and  _347
REMARK  137  A    between atoms: _346  and  _349
REMARK  138  A    between atoms: _349  and  _350
REMARK  139  A    between atoms: _350  and  _351
REMARK  140  A    between atoms: _353  and  _355
REMARK  141  A    between atoms: _355  and  _356
REMARK  142  A    between atoms: _355  and  _358
REMARK  143  A    between atoms: _358  and  _359
REMARK  144  A    between atoms: _359  and  _360
REMARK  145  A    between atoms: _360  and  _361
REMARK  146  A    between atoms: _361  and  _362
REMARK  147  A    between atoms: _366  and  _368
REMARK  148  A    between atoms: _368  and  _369
REMARK  149  A    between atoms: _372  and  _374
REMARK  150  A    between atoms: _374  and  _375
REMARK  151  A    between atoms: _374  and  _377
REMARK  152  A    between atoms: _377  and  _378
REMARK  153  A    between atoms: _378  and  _379
REMARK  154  A    between atoms: _379  and  _380
REMARK  155  A    between atoms: _389  and  _391
REMARK  156  A    between atoms: _391  and  _392
REMARK  157  A    between atoms: _391  and  _394
REMARK  158  A    between atoms: _394  and  _395
REMARK  159  A    between atoms: _398  and  _400
REMARK  160  A    between atoms: _400  and  _401
REMARK  161  A    between atoms: _400  and  _403
REMARK  162  A    between atoms: _403  and  _404
REMARK  163  A    between atoms: _414  and  _416
REMARK  164  A    between atoms: _416  and  _417
REMARK  165  A    between atoms: _416  and  _419
REMARK  166  A    between atoms: _419  and  _420
REMARK  167  A    between atoms: _426  and  _428
REMARK  168  A    between atoms: _428  and  _429
REMARK  169  A    between atoms: _432  and  _434
REMARK  170  A    between atoms: _434  and  _435
REMARK  171  A    between atoms: _434  and  _437
REMARK  172  A    between atoms: _437  and  _438
REMARK  173  A    between atoms: _440  and  _442
REMARK  174  A    between atoms: _442  and  _443
REMARK  175  A    between atoms: _442  and  _445
REMARK  176  A    between atoms: _445  and  _446
REMARK  177  A    between atoms: _449  and  _451
REMARK  178  A    between atoms: _451  and  _452
REMARK  179  A    between atoms: _455  and  _457
REMARK  180  A    between atoms: _457  and  _458
REMARK  181  A    between atoms: _457  and  _460
REMARK  182  A    between atoms: _460  and  _461
REMARK  183  A    between atoms: _464  and  _466
REMARK  184  A    between atoms: _466  and  _467
REMARK  185  A    between atoms: _466  and  _469
REMARK  186  A    between atoms: _469  and  _470
REMARK  187  A    between atoms: _473  and  _475
REMARK  188  A    between atoms: _475  and  _476
REMARK  189  A    between atoms: _475  and  _478
REMARK  190  A    between atoms: _478  and  _479
REMARK  191  A    between atoms: _479  and  _480
REMARK  192  A    between atoms: _480  and  _481
REMARK  193  A    between atoms: _490  and  _492
REMARK  194  A    between atoms: _492  and  _493
REMARK  195  A    between atoms: _492  and  _495
REMARK  196  A    between atoms: _495  and  _496
REMARK  197  A    between atoms: _496  and  _497
REMARK  198  A    between atoms: _502  and  _504
REMARK  199  A    between atoms: _504  and  _505
REMARK  200  A    between atoms: _504  and  _507
REMARK  201  A    between atoms: _507  and  _508
REMARK  202  A    between atoms: _508  and  _509
REMARK  203  A    between atoms: _509  and  _510
REMARK  204  A    between atoms: _520  and  _521
REMARK  205  A    between atoms: _526  and  _528
REMARK  206  A    between atoms: _528  and  _529
REMARK  207  A    between atoms: _528  and  _531
REMARK  208  A    between atoms: _531  and  _532
REMARK  209  A    between atoms: _535  and  _537
REMARK  210  A    between atoms: _537  and  _538
REMARK  211  A    between atoms: _537  and  _540
REMARK  212  A    between atoms: _540  and  _541
REMARK  213  A    between atoms: _547  and  _548
REMARK  214  A    between atoms: _553  and  _555
REMARK  215  A    between atoms: _555  and  _556
REMARK  216  A    between atoms: _555  and  _558
REMARK  217  A    between atoms: _561  and  _563
REMARK  218  A    between atoms: _563  and  _564
REMARK  219  A    between atoms: _563  and  _566
REMARK  220  A    between atoms: _566  and  _567
REMARK  221  A    between atoms: _572  and  _574
REMARK  222  A    between atoms: _574  and  _575
REMARK  223  A    between atoms: _574  and  _577
REMARK  224  A    between atoms: _577  and  _578
REMARK  225  A    between atoms: _583  and  _585
REMARK  226  A    between atoms: _585  and  _586
REMARK  227  A    between atoms: _585  and  _588
REMARK  228  A    between atoms: _588  and  _589
REMARK  229  A    between atoms: _589  and  _590
REMARK  230  A    between atoms: _592  and  _594
REMARK  231  A    between atoms: _594  and  _595
REMARK  232  A    between atoms: _594  and  _597
REMARK  233  A    between atoms: _597  and  _598
REMARK  234  A    between atoms: _603  and  _604
REMARK  235  A    between atoms: _606  and  _608
REMARK  236  A    between atoms: _608  and  _609
REMARK  237  A    between atoms: _608  and  _611
REMARK  238  A    between atoms: _611  and  _612
REMARK  239  A    between atoms: _612  and  _613
REMARK  240  A    between atoms: _618  and  _620
REMARK  241  A    between atoms: _620  and  _621
REMARK  242  A    between atoms: _620  and  _623
REMARK  243  A    between atoms: _623  and  _624
REMARK  244  A    between atoms: _628  and  _629
REMARK  245  A    between atoms: _634  and  _636
REMARK  246  A    between atoms: _636  and  _637
REMARK  247  A    between atoms: _636  and  _639
REMARK  248  A    between atoms: _639  and  _640
REMARK  249  A    between atoms: _646  and  _648
REMARK  250  A    between atoms: _648  and  _649
REMARK  251  A    between atoms: _648  and  _651
REMARK  252  A    between atoms: _651  and  _652
REMARK  253  A    between atoms: _652  and  _653
REMARK  254  A    between atoms: _658  and  _660
REMARK  255  A    between atoms: _660  and  _661
REMARK  256  A    between atoms: _660  and  _663
REMARK  257  A    between atoms: _663  and  _664
REMARK  258  A    between atoms: _667  and  _669
REMARK  259  A    between atoms: _669  and  _670
REMARK  260  A    between atoms: _669  and  _672
REMARK  261  A    between atoms: _672  and  _673
REMARK  262  A    between atoms: _678  and  _679
REMARK  263  A    between atoms: _681  and  _683
REMARK  264  A    between atoms: _683  and  _684
REMARK  265  A    between atoms: _683  and  _686
REMARK  266  A    between atoms: _686  and  _687
REMARK  267  A    between atoms: _692  and  _693
REMARK  268  A    between atoms: _695  and  _697
REMARK  269  A    between atoms: _697  and  _698
REMARK  270  A    between atoms: _697  and  _700
REMARK  271  A    between atoms: _700  and  _701
REMARK  272  A    between atoms: _701  and  _702
REMARK  273  A    between atoms: _705  and  _707
REMARK  274  A    between atoms: _707  and  _708
REMARK  275  A    between atoms: _707  and  _710
REMARK  276  A    between atoms: _710  and  _711
REMARK  277  A    between atoms: _711  and  _712
REMARK  278  A    between atoms: _712  and  _713
REMARK  279  A    between atoms: _722  and  _724
REMARK  280  A    between atoms: _724  and  _725
REMARK  281  A    between atoms: _724  and  _727
REMARK  282  A    between atoms: _727  and  _728
REMARK  283  A    between atoms: _738  and  _740
REMARK  284  A    between atoms: _740  and  _741
REMARK  285  A    between atoms: _740  and  _743
REMARK  286  A    between atoms: _743  and  _744
REMARK  287  A    between atoms: _747  and  _749
REMARK  288  A    between atoms: _749  and  _750
REMARK  289  A    between atoms: _753  and  _755
REMARK  290  A    between atoms: _755  and  _756
REMARK  291  A    between atoms: _755  and  _758
REMARK  292  A    between atoms: _758  and  _759
REMARK  293  A    between atoms: _762  and  _764
REMARK  294  A    between atoms: _764  and  _765
REMARK  295  A    between atoms: _764  and  _767
REMARK  296  A    between atoms: _767  and  _768
REMARK  297  A    between atoms: _768  and  _769
REMARK  298  A    between atoms: _769  and  _770
REMARK  299  A    between atoms: _770  and  _771
REMARK  300  A    between atoms: _775  and  _777
REMARK  301  A    between atoms: _777  and  _778
REMARK  302  A    between atoms: _777  and  _780
REMARK  303  A    between atoms: _780  and  _781
REMARK                            x       y       z     vdW  Elec       q    Type
REMARK                         _______ _______ _______ _____ _____    ______ ____
ROOT
ATOM      1  O   HOH     1     -16.681  -3.263   0.200  0.00  0.00    +0.000 OA
ENDROOT
TORSDOF 0
REMARK  Name = ../refined-set-2016/1y3p/1y3p_pocket.pdb
REMARK  303 active torsions:
REMARK  status: ('A' for Active; 'I' for Inactive)
REMARK    1  A    between atoms: _1  and  _3
REMARK    2  A    between atoms: _3  and  _4
REMARK    3  A    between atoms: _3  and  _6
REMARK    4  A    between atoms: _6  and  _7
REMARK    5  A    between atoms: _12  and  _14
REMARK    6  A    between atoms: _14  and  _15
REMARK    7  A    between atoms: _14  and  _17
REMARK    8  A    between atoms: _17  and  _18
REMARK    9  A    between atoms: _24  and  _26
REMARK   10  A    between atoms: _26  and  _27
REMARK   11  A    between atoms: _26  and  _29
REMARK   12  A    between atoms: _29  and  _30
REMARK   13  A    between atoms: _30  and  _31
REMARK   14  A    between atoms: _31  and  _32
REMARK   15  A    between atoms: _41  and  _43
REMARK   16  A    between atoms: _43  and  _44
REMARK   17  A    between atoms: _43  and  _46
REMARK   18  A    between atoms: _46  and  _47
REMARK   19  A    between atoms: _50  and  _52
REMARK   20  A    between atoms: _52  and  _53
REMARK   21  A    between atoms: _52  and  _55
REMARK   22  A    between atoms: _55  and  _56
REMARK   23  A    between atoms: _56  and  _57
REMARK   24  A    between atoms: _57  and  _58
REMARK   25  A    between atoms: _58  and  _59
REMARK   26  A    between atoms: _63  and  _65
REMARK   27  A    between atoms: _65  and  _66
REMARK   28  A    between atoms: _65  and  _68
REMARK   29  A    between atoms: _68  and  _69
REMARK   30  A    between atoms: _79  and  _81
REMARK   31  A    between atoms: _81  and  _82
REMARK   32  A    between atoms: _81  and  _84
REMARK   33  A    between atoms: _84  and  _85
REMARK   34  A    between atoms: _88  and  _90
REMARK   35  A    between atoms: _90  and  _91
REMARK   36  A    between atoms: _90  and  _93
REMARK   37  A    between atoms: _93  and  _94
REMARK   38  A    between atoms: _99  and  _101
REMARK   39  A    between atoms: _101  and  _102
REMARK   40  A    between atoms: _101  and  _104
REMARK   41  A    between atoms: _104  and  _105
REMARK   42  A    between atoms: _107  and  _109
REMARK   43  A    between atoms: _109  and  _110
REMARK   44  A    between atoms: _109  and  _112
REMARK   45  A    between atoms: _112  and  _113
REMARK   46  A    between atoms: _113  and  _114
REMARK   47  A    between atoms: _119  and  _121
REMARK   48  A    between atoms: _121  and  _122
REMARK   49  A    between atoms: _121  and  _124
REMARK   50  A    between atoms: _124  and  _125
REMARK   51  A    between atoms: _125  and  _126
REMARK   52  A    between atoms: _129  and  _131
REMARK   53  A    between atoms: _131  and  _132
REMARK   54  A    between atoms: _134  and  _136
REMARK   55  A    between atoms: _136  and  _137
REMARK   56  A    between atoms: _136  and  _139
REMARK   57  A    between atoms: _139  and  _140
REMARK   58  A    between atoms: _143  and  _145
REMARK   59  A    between atoms: _145  and  _146
REMARK   60  A    between atoms: _145  and  _148
REMARK   61  A    between atoms: _148  and  _149
REMARK   62  A    between atoms: _154  and  _156
REMARK   63  A    between atoms: _156  and  _157
REMARK   64  A    between atoms: _156  and  _159
REMARK   65  A    between atoms: _159  and  _160
REMARK   66  A    between atoms: _163  and  _165
REMARK   67  A    between atoms: _165  and  _166
REMARK   68  A    between atoms: _165  and  _168
REMARK   69  A    between atoms: _168  and  _169
REMARK   70  A    between atoms: _169  and  _170
REMARK   71  A    between atoms: _170  and  _171
REMARK   72  A    between atoms: _171  and  _172
REMARK   73  A    between atoms: _176  and  _178
REMARK   74  A    between atoms: _178  and  _179
REMARK   75  A    between atoms: _178  and  _181
REMARK   76  A    between atoms: _181  and  _182
REMARK   77  A    between atoms: _187  and  _188
REMARK   78  A    between atoms: _191  and  _192
REMARK   79  A    between atoms: _197  and  _199
REMARK   80  A    between atoms: _199  and  _200
REMARK   81  A    between atoms: _199  and  _202
REMARK   82  A    between atoms: _202  and  _203
REMARK   83  A    between atoms: _206  and  _208
REMARK   84  A    between atoms: _208  and  _209
REMARK   85  A    between atoms: _211  and  _213
REMARK   86  A    between atoms: _213  and  _214
REMARK   87  A    between atoms: _213  and  _216
REMARK   88  A    between atoms: _219  and  _221
REMARK   89  A    between atoms: _221  and  _222
REMARK   90  A    between atoms: _221  and  _224
REMARK   91  A    between atoms: _224  and  _225
REMARK   92  A    between atoms: _227  and  _229
REMARK   93  A    between atoms: _229  and  _230
REMARK   94  A    between atoms: _229  and  _232
REMARK   95  A    between atoms: _232  and  _233
REMARK   96  A    between atoms: _233  and  _234
REMARK   97  A    between atoms: _234  and  _235
REMARK   98  A    between atoms: _244  and  _246
REMARK   99  A    between atoms: _246  and  _247
REMARK  100  A    between atoms: _246  and  _249
REMARK  101  A    between atoms: _249  and  _250
REMARK  102  A    between atoms: _255  and  _257
REMARK  103  A    between atoms: _257  and  _258
REMARK  104  A    between atoms: _257  and  _260
REMARK  105  A    between atoms: _260  and  _261
REMARK  106  A    between atoms: _261  and  _262
REMARK  107  A    between atoms: _262  and  _263
REMARK  108  A    between atoms: _272  and  _274
REMARK  109  A    between atoms: _274  and  _275
REMARK  110  A    between atoms: _274  and  _277
REMARK  111  A    between atoms: _277  and  _278
REMARK  112  A    between atoms: _282  and  _283
REMARK  113  A    between atoms: _288  and  _290
REMARK  114  A    between atoms: _290  and  _291
REMARK  115  A    between atoms: _290  and  _293
REMARK  116  A    between atoms: _293  and  _294
REMARK  117  A    between atoms: _294  and  _295
REMARK  118  A    between atoms: _298  and  _300
REMARK  119  A    between atoms: _300  and  _301
REMARK  120  A    between atoms: _300  and  _303
REMARK  121  A    between atoms: _303  and  _304
REMARK  122  A    between atoms: _304  and  _305
REMARK  123  A    between atoms: _308  and  _310
REMARK  124  A    between atoms: _310  and  _311
REMARK  125  A    between atoms: _310  and  _313
REMARK  126  A    between atoms: _313  and  _314
REMARK  127  A    between atoms: _319  and  _321
REMARK  128  A    between atoms: _321  and  _322
REMARK  129  A    between atoms: _321  and  _324
REMARK  130  A    between atoms: _324  and  _325
REMARK  131  A    between atoms: _328  and  _330
REMARK  132  A    between atoms: _330  and  _331
REMARK  133  A    between atoms: _330  and  _333
REMARK  134  A    between atoms: _333  and  _334
REMARK  135  A    between atoms: _344  and  _346
REMARK  136  A    between atoms: _346  and  _347
REMARK  137  A    between atoms: _346  and  _349
REMARK  138  A    between atoms: _349  and  _350
REMARK  139  A    between atoms: _350  and  _351
REMARK  140  A    between atoms: _353  and  _355
REMARK  141  A    between atoms: _355  and  _356
REMARK  142  A    between atoms: _355  and  _358
REMARK  143  A    between atoms: _358  and  _359
REMARK  144  A    between atoms: _359  and  _360
REMARK  145  A    between atoms: _360  and  _361
REMARK  146  A    between atoms: _361  and  _362
REMARK  147  A    between atoms: _366  and  _368
REMARK  148  A    between atoms: _368  and  _369
REMARK  149  A    between atoms: _372  and  _374
REMARK  150  A    between atoms: _374  and  _375
REMARK  151  A    between atoms: _374  and  _377
REMARK  152  A    between atoms: _377  and  _378
REMARK  153  A    between atoms: _378  and  _379
REMARK  154  A    between atoms: _379  and  _380
REMARK  155  A    between atoms: _389  and  _391
REMARK  156  A    between atoms: _391  and  _392
REMARK  157  A    between atoms: _391  and  _394
REMARK  158  A    between atoms: _394  and  _395
REMARK  159  A    between atoms: _398  and  _400
REMARK  160  A    between atoms: _400  and  _401
REMARK  161  A    between atoms: _400  and  _403
REMARK  162  A    between atoms: _403  and  _404
REMARK  163  A    between atoms: _414  and  _416
REMARK  164  A    between atoms: _416  and  _417
REMARK  165  A    between atoms: _416  and  _419
REMARK  166  A    between atoms: _419  and  _420
REMARK  167  A    between atoms: _426  and  _428
REMARK  168  A    between atoms: _428  and  _429
REMARK  169  A    between atoms: _432  and  _434
REMARK  170  A    between atoms: _434  and  _435
REMARK  171  A    between atoms: _434  and  _437
REMARK  172  A    between atoms: _437  and  _438
REMARK  173  A    between atoms: _440  and  _442
REMARK  174  A    between atoms: _442  and  _443
REMARK  175  A    between atoms: _442  and  _445
REMARK  176  A    between atoms: _445  and  _446
REMARK  177  A    between atoms: _449  and  _451
REMARK  178  A    between atoms: _451  and  _452
REMARK  179  A    between atoms: _455  and  _457
REMARK  180  A    between atoms: _457  and  _458
REMARK  181  A    between atoms: _457  and  _460
REMARK  182  A    between atoms: _460  and  _461
REMARK  183  A    between atoms: _464  and  _466
REMARK  184  A    between atoms: _466  and  _467
REMARK  185  A    between atoms: _466  and  _469
REMARK  186  A    between atoms: _469  and  _470
REMARK  187  A    between atoms: _473  and  _475
REMARK  188  A    between atoms: _475  and  _476
REMARK  189  A    between atoms: _475  and  _478
REMARK  190  A    between atoms: _478  and  _479
REMARK  191  A    between atoms: _479  and  _480
REMARK  192  A    between atoms: _480  and  _481
REMARK  193  A    between atoms: _490  and  _492
REMARK  194  A    between atoms: _492  and  _493
REMARK  195  A    between atoms: _492  and  _495
REMARK  196  A    between atoms: _495  and  _496
REMARK  197  A    between atoms: _496  and  _497
REMARK  198  A    between atoms: _502  and  _504
REMARK  199  A    between atoms: _504  and  _505
REMARK  200  A    between atoms: _504  and  _507
REMARK  201  A    between atoms: _507  and  _508
REMARK  202  A    between atoms: _508  and  _509
REMARK  203  A    between atoms: _509  and  _510
REMARK  204  A    between atoms: _520  and  _521
REMARK  205  A    between atoms: _526  and  _528
REMARK  206  A    between atoms: _528  and  _529
REMARK  207  A    between atoms: _528  and  _531
REMARK  208  A    between atoms: _531  and  _532
REMARK  209  A    between atoms: _535  and  _537
REMARK  210  A    between atoms: _537  and  _538
REMARK  211  A    between atoms: _537  and  _540
REMARK  212  A    between atoms: _540  and  _541
REMARK  213  A    between atoms: _547  and  _548
REMARK  214  A    between atoms: _553  and  _555
REMARK  215  A    between atoms: _555  and  _556
REMARK  216  A    between atoms: _555  and  _558
REMARK  217  A    between atoms: _561  and  _563
REMARK  218  A    between atoms: _563  and  _564
REMARK  219  A    between atoms: _563  and  _566
REMARK  220  A    between atoms: _566  and  _567
REMARK  221  A    between atoms: _572  and  _574
REMARK  222  A    between atoms: _574  and  _575
REMARK  223  A    between atoms: _574  and  _577
REMARK  224  A    between atoms: _577  and  _578
REMARK  225  A    between atoms: _583  and  _585
REMARK  226  A    between atoms: _585  and  _586
REMARK  227  A    between atoms: _585  and  _588
REMARK  228  A    between atoms: _588  and  _589
REMARK  229  A    between atoms: _589  and  _590
REMARK  230  A    between atoms: _592  and  _594
REMARK  231  A    between atoms: _594  and  _595
REMARK  232  A    between atoms: _594  and  _597
REMARK  233  A    between atoms: _597  and  _598
REMARK  234  A    between atoms: _603  and  _604
REMARK  235  A    between atoms: _606  and  _608
REMARK  236  A    between atoms: _608  and  _609
REMARK  237  A    between atoms: _608  and  _611
REMARK  238  A    between atoms: _611  and  _612
REMARK  239  A    between atoms: _612  and  _613
REMARK  240  A    between atoms: _618  and  _620
REMARK  241  A    between atoms: _620  and  _621
REMARK  242  A    between atoms: _620  and  _623
REMARK  243  A    between atoms: _623  and  _624
REMARK  244  A    between atoms: _628  and  _629
REMARK  245  A    between atoms: _634  and  _636
REMARK  246  A    between atoms: _636  and  _637
REMARK  247  A    between atoms: _636  and  _639
REMARK  248  A    between atoms: _639  and  _640
REMARK  249  A    between atoms: _646  and  _648
REMARK  250  A    between atoms: _648  and  _649
REMARK  251  A    between atoms: _648  and  _651
REMARK  252  A    between atoms: _651  and  _652
REMARK  253  A    between atoms: _652  and  _653
REMARK  254  A    between atoms: _658  and  _660
REMARK  255  A    between atoms: _660  and  _661
REMARK  256  A    between atoms: _660  and  _663
REMARK  257  A    between atoms: _663  and  _664
REMARK  258  A    between atoms: _667  and  _669
REMARK  259  A    between atoms: _669  and  _670
REMARK  260  A    between atoms: _669  and  _672
REMARK  261  A    between atoms: _672  and  _673
REMARK  262  A    between atoms: _678  and  _679
REMARK  263  A    between atoms: _681  and  _683
REMARK  264  A    between atoms: _683  and  _684
REMARK  265  A    between atoms: _683  and  _686
REMARK  266  A    between atoms: _686  and  _687
REMARK  267  A    between atoms: _692  and  _693
REMARK  268  A    between atoms: _695  and  _697
REMARK  269  A    between atoms: _697  and  _698
REMARK  270  A    between atoms: _697  and  _700
REMARK  271  A    between atoms: _700  and  _701
REMARK  272  A    between atoms: _701  and  _702
REMARK  273  A    between atoms: _705  and  _707
REMARK  274  A    between atoms: _707  and  _708
REMARK  275  A    between atoms: _707  and  _710
REMARK  276  A    between atoms: _710  and  _711
REMARK  277  A    between atoms: _711  and  _712
REMARK  278  A    between atoms: _712  and  _713
REMARK  279  A    between atoms: _722  and  _724
REMARK  280  A    between atoms: _724  and  _725
REMARK  281  A    between atoms: _724  and  _727
REMARK  282  A    between atoms: _727  and  _728
REMARK  283  A    between atoms: _738  and  _740
REMARK  284  A    between atoms: _740  and  _741
REMARK  285  A    between atoms: _740  and  _743
REMARK  286  A    between atoms: _743  and  _744
REMARK  287  A    between atoms: _747  and  _749
REMARK  288  A    between atoms: _749  and  _750
REMARK  289  A    between atoms: _753  and  _755
REMARK  290  A    between atoms: _755  and  _756
REMARK  291  A    between atoms: _755  and  _758
REMARK  292  A    between atoms: _758  and  _759
REMARK  293  A    between atoms: _762  and  _764
REMARK  294  A    between atoms: _764  and  _765
REMARK  295  A    between atoms: _764  and  _767
REMARK  296  A    between atoms: _767  and  _768
REMARK  297  A    between atoms: _768  and  _769
REMARK  298  A    between atoms: _769  and  _770
REMARK  299  A    between atoms: _770  and  _771
REMARK  300  A    between atoms: _775  and  _777
REMARK  301  A    between atoms: _777  and  _778
REMARK  302  A    between atoms: _777  and  _780
REMARK  303  A    between atoms: _780  and  _781
REMARK                            x       y       z     vdW  Elec       q    Type
REMARK                         _______ _______ _______ _____ _____    ______ ____
ROOT
ATOM      1  O   HOH     1      -7.953  -6.880  -9.265  0.00  0.00    +0.000 OA
ENDROOT
TORSDOF 0
REMARK  Name = ../refined-set-2016/1y3p/1y3p_pocket.pdb
REMARK  303 active torsions:
REMARK  status: ('A' for Active; 'I' for Inactive)
REMARK    1  A    between atoms: _1  and  _3
REMARK    2  A    between atoms: _3  and  _4
REMARK    3  A    between atoms: _3  and  _6
REMARK    4  A    between atoms: _6  and  _7
REMARK    5  A    between atoms: _12  and  _14
REMARK    6  A    between atoms: _14  and  _15
REMARK    7  A    between atoms: _14  and  _17
REMARK    8  A    between atoms: _17  and  _18
REMARK    9  A    between atoms: _24  and  _26
REMARK   10  A    between atoms: _26  and  _27
REMARK   11  A    between atoms: _26  and  _29
REMARK   12  A    between atoms: _29  and  _30
REMARK   13  A    between atoms: _30  and  _31
REMARK   14  A    between atoms: _31  and  _32
REMARK   15  A    between atoms: _41  and  _43
REMARK   16  A    between atoms: _43  and  _44
REMARK   17  A    between atoms: _43  and  _46
REMARK   18  A    between atoms: _46  and  _47
REMARK   19  A    between atoms: _50  and  _52
REMARK   20  A    between atoms: _52  and  _53
REMARK   21  A    between atoms: _52  and  _55
REMARK   22  A    between atoms: _55  and  _56
REMARK   23  A    between atoms: _56  and  _57
REMARK   24  A    between atoms: _57  and  _58
REMARK   25  A    between atoms: _58  and  _59
REMARK   26  A    between atoms: _63  and  _65
REMARK   27  A    between atoms: _65  and  _66
REMARK   28  A    between atoms: _65  and  _68
REMARK   29  A    between atoms: _68  and  _69
REMARK   30  A    between atoms: _79  and  _81
REMARK   31  A    between atoms: _81  and  _82
REMARK   32  A    between atoms: _81  and  _84
REMARK   33  A    between atoms: _84  and  _85
REMARK   34  A    between atoms: _88  and  _90
REMARK   35  A    between atoms: _90  and  _91
REMARK   36  A    between atoms: _90  and  _93
REMARK   37  A    between atoms: _93  and  _94
REMARK   38  A    between atoms: _99  and  _101
REMARK   39  A    between atoms: _101  and  _102
REMARK   40  A    between atoms: _101  and  _104
REMARK   41  A    between atoms: _104  and  _105
REMARK   42  A    between atoms: _107  and  _109
REMARK   43  A    between atoms: _109  and  _110
REMARK   44  A    between atoms: _109  and  _112
REMARK   45  A    between atoms: _112  and  _113
REMARK   46  A    between atoms: _113  and  _114
REMARK   47  A    between atoms: _119  and  _121
REMARK   48  A    between atoms: _121  and  _122
REMARK   49  A    between atoms: _121  and  _124
REMARK   50  A    between atoms: _124  and  _125
REMARK   51  A    between atoms: _125  and  _126
REMARK   52  A    between atoms: _129  and  _131
REMARK   53  A    between atoms: _131  and  _132
REMARK   54  A    between atoms: _134  and  _136
REMARK   55  A    between atoms: _136  and  _137
REMARK   56  A    between atoms: _136  and  _139
REMARK   57  A    between atoms: _139  and  _140
REMARK   58  A    between atoms: _143  and  _145
REMARK   59  A    between atoms: _145  and  _146
REMARK   60  A    between atoms: _145  and  _148
REMARK   61  A    between atoms: _148  and  _149
REMARK   62  A    between atoms: _154  and  _156
REMARK   63  A    between atoms: _156  and  _157
REMARK   64  A    between atoms: _156  and  _159
REMARK   65  A    between atoms: _159  and  _160
REMARK   66  A    between atoms: _163  and  _165
REMARK   67  A    between atoms: _165  and  _166
REMARK   68  A    between atoms: _165  and  _168
REMARK   69  A    between atoms: _168  and  _169
REMARK   70  A    between atoms: _169  and  _170
REMARK   71  A    between atoms: _170  and  _171
REMARK   72  A    between atoms: _171  and  _172
REMARK   73  A    between atoms: _176  and  _178
REMARK   74  A    between atoms: _178  and  _179
REMARK   75  A    between atoms: _178  and  _181
REMARK   76  A    between atoms: _181  and  _182
REMARK   77  A    between atoms: _187  and  _188
REMARK   78  A    between atoms: _191  and  _192
REMARK   79  A    between atoms: _197  and  _199
REMARK   80  A    between atoms: _199  and  _200
REMARK   81  A    between atoms: _199  and  _202
REMARK   82  A    between atoms: _202  and  _203
REMARK   83  A    between atoms: _206  and  _208
REMARK   84  A    between atoms: _208  and  _209
REMARK   85  A    between atoms: _211  and  _213
REMARK   86  A    between atoms: _213  and  _214
REMARK   87  A    between atoms: _213  and  _216
REMARK   88  A    between atoms: _219  and  _221
REMARK   89  A    between atoms: _221  and  _222
REMARK   90  A    between atoms: _221  and  _224
REMARK   91  A    between atoms: _224  and  _225
REMARK   92  A    between atoms: _227  and  _229
REMARK   93  A    between atoms: _229  and  _230
REMARK   94  A    between atoms: _229  and  _232
REMARK   95  A    between atoms: _232  and  _233
REMARK   96  A    between atoms: _233  and  _234
REMARK   97  A    between atoms: _234  and  _235
REMARK   98  A    between atoms: _244  and  _246
REMARK   99  A    between atoms: _246  and  _247
REMARK  100  A    between atoms: _246  and  _249
REMARK  101  A    between atoms: _249  and  _250
REMARK  102  A    between atoms: _255  and  _257
REMARK  103  A    between atoms: _257  and  _258
REMARK  104  A    between atoms: _257  and  _260
REMARK  105  A    between atoms: _260  and  _261
REMARK  106  A    between atoms: _261  and  _262
REMARK  107  A    between atoms: _262  and  _263
REMARK  108  A    between atoms: _272  and  _274
REMARK  109  A    between atoms: _274  and  _275
REMARK  110  A    between atoms: _274  and  _277
REMARK  111  A    between atoms: _277  and  _278
REMARK  112  A    between atoms: _282  and  _283
REMARK  113  A    between atoms: _288  and  _290
REMARK  114  A    between atoms: _290  and  _291
REMARK  115  A    between atoms: _290  and  _293
REMARK  116  A    between atoms: _293  and  _294
REMARK  117  A    between atoms: _294  and  _295
REMARK  118  A    between atoms: _298  and  _300
REMARK  119  A    between atoms: _300  and  _301
REMARK  120  A    between atoms: _300  and  _303
REMARK  121  A    between atoms: _303  and  _304
REMARK  122  A    between atoms: _304  and  _305
REMARK  123  A    between atoms: _308  and  _310
REMARK  124  A    between atoms: _310  and  _311
REMARK  125  A    between atoms: _310  and  _313
REMARK  126  A    between atoms: _313  and  _314
REMARK  127  A    between atoms: _319  and  _321
REMARK  128  A    between atoms: _321  and  _322
REMARK  129  A    between atoms: _321  and  _324
REMARK  130  A    between atoms: _324  and  _325
REMARK  131  A    between atoms: _328  and  _330
REMARK  132  A    between atoms: _330  and  _331
REMARK  133  A    between atoms: _330  and  _333
REMARK  134  A    between atoms: _333  and  _334
REMARK  135  A    between atoms: _344  and  _346
REMARK  136  A    between atoms: _346  and  _347
REMARK  137  A    between atoms: _346  and  _349
REMARK  138  A    between atoms: _349  and  _350
REMARK  139  A    between atoms: _350  and  _351
REMARK  140  A    between atoms: _353  and  _355
REMARK  141  A    between atoms: _355  and  _356
REMARK  142  A    between atoms: _355  and  _358
REMARK  143  A    between atoms: _358  and  _359
REMARK  144  A    between atoms: _359  and  _360
REMARK  145  A    between atoms: _360  and  _361
REMARK  146  A    between atoms: _361  and  _362
REMARK  147  A    between atoms: _366  and  _368
REMARK  148  A    between atoms: _368  and  _369
REMARK  149  A    between atoms: _372  and  _374
REMARK  150  A    between atoms: _374  and  _375
REMARK  151  A    between atoms: _374  and  _377
REMARK  152  A    between atoms: _377  and  _378
REMARK  153  A    between atoms: _378  and  _379
REMARK  154  A    between atoms: _379  and  _380
REMARK  155  A    between atoms: _389  and  _391
REMARK  156  A    between atoms: _391  and  _392
REMARK  157  A    between atoms: _391  and  _394
REMARK  158  A    between atoms: _394  and  _395
REMARK  159  A    between atoms: _398  and  _400
REMARK  160  A    between atoms: _400  and  _401
REMARK  161  A    between atoms: _400  and  _403
REMARK  162  A    between atoms: _403  and  _404
REMARK  163  A    between atoms: _414  and  _416
REMARK  164  A    between atoms: _416  and  _417
REMARK  165  A    between atoms: _416  and  _419
REMARK  166  A    between atoms: _419  and  _420
REMARK  167  A    between atoms: _426  and  _428
REMARK  168  A    between atoms: _428  and  _429
REMARK  169  A    between atoms: _432  and  _434
REMARK  170  A    between atoms: _434  and  _435
REMARK  171  A    between atoms: _434  and  _437
REMARK  172  A    between atoms: _437  and  _438
REMARK  173  A    between atoms: _440  and  _442
REMARK  174  A    between atoms: _442  and  _443
REMARK  175  A    between atoms: _442  and  _445
REMARK  176  A    between atoms: _445  and  _446
REMARK  177  A    between atoms: _449  and  _451
REMARK  178  A    between atoms: _451  and  _452
REMARK  179  A    between atoms: _455  and  _457
REMARK  180  A    between atoms: _457  and  _458
REMARK  181  A    between atoms: _457  and  _460
REMARK  182  A    between atoms: _460  and  _461
REMARK  183  A    between atoms: _464  and  _466
REMARK  184  A    between atoms: _466  and  _467
REMARK  185  A    between atoms: _466  and  _469
REMARK  186  A    between atoms: _469  and  _470
REMARK  187  A    between atoms: _473  and  _475
REMARK  188  A    between atoms: _475  and  _476
REMARK  189  A    between atoms: _475  and  _478
REMARK  190  A    between atoms: _478  and  _479
REMARK  191  A    between atoms: _479  and  _480
REMARK  192  A    between atoms: _480  and  _481
REMARK  193  A    between atoms: _490  and  _492
REMARK  194  A    between atoms: _492  and  _493
REMARK  195  A    between atoms: _492  and  _495
REMARK  196  A    between atoms: _495  and  _496
REMARK  197  A    between atoms: _496  and  _497
REMARK  198  A    between atoms: _502  and  _504
REMARK  199  A    between atoms: _504  and  _505
REMARK  200  A    between atoms: _504  and  _507
REMARK  201  A    between atoms: _507  and  _508
REMARK  202  A    between atoms: _508  and  _509
REMARK  203  A    between atoms: _509  and  _510
REMARK  204  A    between atoms: _520  and  _521
REMARK  205  A    between atoms: _526  and  _528
REMARK  206  A    between atoms: _528  and  _529
REMARK  207  A    between atoms: _528  and  _531
REMARK  208  A    between atoms: _531  and  _532
REMARK  209  A    between atoms: _535  and  _537
REMARK  210  A    between atoms: _537  and  _538
REMARK  211  A    between atoms: _537  and  _540
REMARK  212  A    between atoms: _540  and  _541
REMARK  213  A    between atoms: _547  and  _548
REMARK  214  A    between atoms: _553  and  _555
REMARK  215  A    between atoms: _555  and  _556
REMARK  216  A    between atoms: _555  and  _558
REMARK  217  A    between atoms: _561  and  _563
REMARK  218  A    between atoms: _563  and  _564
REMARK  219  A    between atoms: _563  and  _566
REMARK  220  A    between atoms: _566  and  _567
REMARK  221  A    between atoms: _572  and  _574
REMARK  222  A    between atoms: _574  and  _575
REMARK  223  A    between atoms: _574  and  _577
REMARK  224  A    between atoms: _577  and  _578
REMARK  225  A    between atoms: _583  and  _585
REMARK  226  A    between atoms: _585  and  _586
REMARK  227  A    between atoms: _585  and  _588
REMARK  228  A    between atoms: _588  and  _589
REMARK  229  A    between atoms: _589  and  _590
REMARK  230  A    between atoms: _592  and  _594
REMARK  231  A    between atoms: _594  and  _595
REMARK  232  A    between atoms: _594  and  _597
REMARK  233  A    between atoms: _597  and  _598
REMARK  234  A    between atoms: _603  and  _604
REMARK  235  A    between atoms: _606  and  _608
REMARK  236  A    between atoms: _608  and  _609
REMARK  237  A    between atoms: _608  and  _611
REMARK  238  A    between atoms: _611  and  _612
REMARK  239  A    between atoms: _612  and  _613
REMARK  240  A    between atoms: _618  and  _620
REMARK  241  A    between atoms: _620  and  _621
REMARK  242  A    between atoms: _620  and  _623
REMARK  243  A    between atoms: _623  and  _624
REMARK  244  A    between atoms: _628  and  _629
REMARK  245  A    between atoms: _634  and  _636
REMARK  246  A    between atoms: _636  and  _637
REMARK  247  A    between atoms: _636  and  _639
REMARK  248  A    between atoms: _639  and  _640
REMARK  249  A    between atoms: _646  and  _648
REMARK  250  A    between atoms: _648  and  _649
REMARK  251  A    between atoms: _648  and  _651
REMARK  252  A    between atoms: _651  and  _652
REMARK  253  A    between atoms: _652  and  _653
REMARK  254  A    between atoms: _658  and  _660
REMARK  255  A    between atoms: _660  and  _661
REMARK  256  A    between atoms: _660  and  _663
REMARK  257  A    between atoms: _663  and  _664
REMARK  258  A    between atoms: _667  and  _669
REMARK  259  A    between atoms: _669  and  _670
REMARK  260  A    between atoms: _669  and  _672
REMARK  261  A    between atoms: _672  and  _673
REMARK  262  A    between atoms: _678  and  _679
REMARK  263  A    between atoms: _681  and  _683
REMARK  264  A    between atoms: _683  and  _684
REMARK  265  A    between atoms: _683  and  _686
REMARK  266  A    between atoms: _686  and  _687
REMARK  267  A    between atoms: _692  and  _693
REMARK  268  A    between atoms: _695  and  _697
REMARK  269  A    between atoms: _697  and  _698
REMARK  270  A    between atoms: _697  and  _700
REMARK  271  A    between atoms: _700  and  _701
REMARK  272  A    between atoms: _701  and  _702
REMARK  273  A    between atoms: _705  and  _707
REMARK  274  A    between atoms: _707  and  _708
REMARK  275  A    between atoms: _707  and  _710
REMARK  276  A    between atoms: _710  and  _711
REMARK  277  A    between atoms: _711  and  _712
REMARK  278  A    between atoms: _712  and  _713
REMARK  279  A    between atoms: _722  and  _724
REMARK  280  A    between atoms: _724  and  _725
REMARK  281  A    between atoms: _724  and  _727
REMARK  282  A    between atoms: _727  and  _728
REMARK  283  A    between atoms: _738  and  _740
REMARK  284  A    between atoms: _740  and  _741
REMARK  285  A    between atoms: _740  and  _743
REMARK  286  A    between atoms: _743  and  _744
REMARK  287  A    between atoms: _747  and  _749
REMARK  288  A    between atoms: _749  and  _750
REMARK  289  A    between atoms: _753  and  _755
REMARK  290  A    between atoms: _755  and  _756
REMARK  291  A    between atoms: _755  and  _758
REMARK  292  A    between atoms: _758  and  _759
REMARK  293  A    between atoms: _762  and  _764
REMARK  294  A    between atoms: _764  and  _765
REMARK  295  A    between atoms: _764  and  _767
REMARK  296  A    between atoms: _767  and  _768
REMARK  297  A    between atoms: _768  and  _769
REMARK  298  A    between atoms: _769  and  _770
REMARK  299  A    between atoms: _770  and  _771
REMARK  300  A    between atoms: _775  and  _777
REMARK  301  A    between atoms: _777  and  _778
REMARK  302  A    between atoms: _777  and  _780
REMARK  303  A    between atoms: _780  and  _781
REMARK                            x       y       z     vdW  Elec       q    Type
REMARK                         _______ _______ _______ _____ _____    ______ ____
ROOT
ATOM      1  O   HOH     1      -9.290 -11.780  -8.770  0.00  0.00    +0.000 OA
ENDROOT
TORSDOF 0
REMARK  Name = ../refined-set-2016/1y3p/1y3p_pocket.pdb
REMARK  303 active torsions:
REMARK  status: ('A' for Active; 'I' for Inactive)
REMARK    1  A    between atoms: _1  and  _3
REMARK    2  A    between atoms: _3  and  _4
REMARK    3  A    between atoms: _3  and  _6
REMARK    4  A    between atoms: _6  and  _7
REMARK    5  A    between atoms: _12  and  _14
REMARK    6  A    between atoms: _14  and  _15
REMARK    7  A    between atoms: _14  and  _17
REMARK    8  A    between atoms: _17  and  _18
REMARK    9  A    between atoms: _24  and  _26
REMARK   10  A    between atoms: _26  and  _27
REMARK   11  A    between atoms: _26  and  _29
REMARK   12  A    between atoms: _29  and  _30
REMARK   13  A    between atoms: _30  and  _31
REMARK   14  A    between atoms: _31  and  _32
REMARK   15  A    between atoms: _41  and  _43
REMARK   16  A    between atoms: _43  and  _44
REMARK   17  A    between atoms: _43  and  _46
REMARK   18  A    between atoms: _46  and  _47
REMARK   19  A    between atoms: _50  and  _52
REMARK   20  A    between atoms: _52  and  _53
REMARK   21  A    between atoms: _52  and  _55
REMARK   22  A    between atoms: _55  and  _56
REMARK   23  A    between atoms: _56  and  _57
REMARK   24  A    between atoms: _57  and  _58
REMARK   25  A    between atoms: _58  and  _59
REMARK   26  A    between atoms: _63  and  _65
REMARK   27  A    between atoms: _65  and  _66
REMARK   28  A    between atoms: _65  and  _68
REMARK   29  A    between atoms: _68  and  _69
REMARK   30  A    between atoms: _79  and  _81
REMARK   31  A    between atoms: _81  and  _82
REMARK   32  A    between atoms: _81  and  _84
REMARK   33  A    between atoms: _84  and  _85
REMARK   34  A    between atoms: _88  and  _90
REMARK   35  A    between atoms: _90  and  _91
REMARK   36  A    between atoms: _90  and  _93
REMARK   37  A    between atoms: _93  and  _94
REMARK   38  A    between atoms: _99  and  _101
REMARK   39  A    between atoms: _101  and  _102
REMARK   40  A    between atoms: _101  and  _104
REMARK   41  A    between atoms: _104  and  _105
REMARK   42  A    between atoms: _107  and  _109
REMARK   43  A    between atoms: _109  and  _110
REMARK   44  A    between atoms: _109  and  _112
REMARK   45  A    between atoms: _112  and  _113
REMARK   46  A    between atoms: _113  and  _114
REMARK   47  A    between atoms: _119  and  _121
REMARK   48  A    between atoms: _121  and  _122
REMARK   49  A    between atoms: _121  and  _124
REMARK   50  A    between atoms: _124  and  _125
REMARK   51  A    between atoms: _125  and  _126
REMARK   52  A    between atoms: _129  and  _131
REMARK   53  A    between atoms: _131  and  _132
REMARK   54  A    between atoms: _134  and  _136
REMARK   55  A    between atoms: _136  and  _137
REMARK   56  A    between atoms: _136  and  _139
REMARK   57  A    between atoms: _139  and  _140
REMARK   58  A    between atoms: _143  and  _145
REMARK   59  A    between atoms: _145  and  _146
REMARK   60  A    between atoms: _145  and  _148
REMARK   61  A    between atoms: _148  and  _149
REMARK   62  A    between atoms: _154  and  _156
REMARK   63  A    between atoms: _156  and  _157
REMARK   64  A    between atoms: _156  and  _159
REMARK   65  A    between atoms: _159  and  _160
REMARK   66  A    between atoms: _163  and  _165
REMARK   67  A    between atoms: _165  and  _166
REMARK   68  A    between atoms: _165  and  _168
REMARK   69  A    between atoms: _168  and  _169
REMARK   70  A    between atoms: _169  and  _170
REMARK   71  A    between atoms: _170  and  _171
REMARK   72  A    between atoms: _171  and  _172
REMARK   73  A    between atoms: _176  and  _178
REMARK   74  A    between atoms: _178  and  _179
REMARK   75  A    between atoms: _178  and  _181
REMARK   76  A    between atoms: _181  and  _182
REMARK   77  A    between atoms: _187  and  _188
REMARK   78  A    between atoms: _191  and  _192
REMARK   79  A    between atoms: _197  and  _199
REMARK   80  A    between atoms: _199  and  _200
REMARK   81  A    between atoms: _199  and  _202
REMARK   82  A    between atoms: _202  and  _203
REMARK   83  A    between atoms: _206  and  _208
REMARK   84  A    between atoms: _208  and  _209
REMARK   85  A    between atoms: _211  and  _213
REMARK   86  A    between atoms: _213  and  _214
REMARK   87  A    between atoms: _213  and  _216
REMARK   88  A    between atoms: _219  and  _221
REMARK   89  A    between atoms: _221  and  _222
REMARK   90  A    between atoms: _221  and  _224
REMARK   91  A    between atoms: _224  and  _225
REMARK   92  A    between atoms: _227  and  _229
REMARK   93  A    between atoms: _229  and  _230
REMARK   94  A    between atoms: _229  and  _232
REMARK   95  A    between atoms: _232  and  _233
REMARK   96  A    between atoms: _233  and  _234
REMARK   97  A    between atoms: _234  and  _235
REMARK   98  A    between atoms: _244  and  _246
REMARK   99  A    between atoms: _246  and  _247
REMARK  100  A    between atoms: _246  and  _249
REMARK  101  A    between atoms: _249  and  _250
REMARK  102  A    between atoms: _255  and  _257
REMARK  103  A    between atoms: _257  and  _258
REMARK  104  A    between atoms: _257  and  _260
REMARK  105  A    between atoms: _260  and  _261
REMARK  106  A    between atoms: _261  and  _262
REMARK  107  A    between atoms: _262  and  _263
REMARK  108  A    between atoms: _272  and  _274
REMARK  109  A    between atoms: _274  and  _275
REMARK  110  A    between atoms: _274  and  _277
REMARK  111  A    between atoms: _277  and  _278
REMARK  112  A    between atoms: _282  and  _283
REMARK  113  A    between atoms: _288  and  _290
REMARK  114  A    between atoms: _290  and  _291
REMARK  115  A    between atoms: _290  and  _293
REMARK  116  A    between atoms: _293  and  _294
REMARK  117  A    between atoms: _294  and  _295
REMARK  118  A    between atoms: _298  and  _300
REMARK  119  A    between atoms: _300  and  _301
REMARK  120  A    between atoms: _300  and  _303
REMARK  121  A    between atoms: _303  and  _304
REMARK  122  A    between atoms: _304  and  _305
REMARK  123  A    between atoms: _308  and  _310
REMARK  124  A    between atoms: _310  and  _311
REMARK  125  A    between atoms: _310  and  _313
REMARK  126  A    between atoms: _313  and  _314
REMARK  127  A    between atoms: _319  and  _321
REMARK  128  A    between atoms: _321  and  _322
REMARK  129  A    between atoms: _321  and  _324
REMARK  130  A    between atoms: _324  and  _325
REMARK  131  A    between atoms: _328  and  _330
REMARK  132  A    between atoms: _330  and  _331
REMARK  133  A    between atoms: _330  and  _333
REMARK  134  A    between atoms: _333  and  _334
REMARK  135  A    between atoms: _344  and  _346
REMARK  136  A    between atoms: _346  and  _347
REMARK  137  A    between atoms: _346  and  _349
REMARK  138  A    between atoms: _349  and  _350
REMARK  139  A    between atoms: _350  and  _351
REMARK  140  A    between atoms: _353  and  _355
REMARK  141  A    between atoms: _355  and  _356
REMARK  142  A    between atoms: _355  and  _358
REMARK  143  A    between atoms: _358  and  _359
REMARK  144  A    between atoms: _359  and  _360
REMARK  145  A    between atoms: _360  and  _361
REMARK  146  A    between atoms: _361  and  _362
REMARK  147  A    between atoms: _366  and  _368
REMARK  148  A    between atoms: _368  and  _369
REMARK  149  A    between atoms: _372  and  _374
REMARK  150  A    between atoms: _374  and  _375
REMARK  151  A    between atoms: _374  and  _377
REMARK  152  A    between atoms: _377  and  _378
REMARK  153  A    between atoms: _378  and  _379
REMARK  154  A    between atoms: _379  and  _380
REMARK  155  A    between atoms: _389  and  _391
REMARK  156  A    between atoms: _391  and  _392
REMARK  157  A    between atoms: _391  and  _394
REMARK  158  A    between atoms: _394  and  _395
REMARK  159  A    between atoms: _398  and  _400
REMARK  160  A    between atoms: _400  and  _401
REMARK  161  A    between atoms: _400  and  _403
REMARK  162  A    between atoms: _403  and  _404
REMARK  163  A    between atoms: _414  and  _416
REMARK  164  A    between atoms: _416  and  _417
REMARK  165  A    between atoms: _416  and  _419
REMARK  166  A    between atoms: _419  and  _420
REMARK  167  A    between atoms: _426  and  _428
REMARK  168  A    between atoms: _428  and  _429
REMARK  169  A    between atoms: _432  and  _434
REMARK  170  A    between atoms: _434  and  _435
REMARK  171  A    between atoms: _434  and  _437
REMARK  172  A    between atoms: _437  and  _438
REMARK  173  A    between atoms: _440  and  _442
REMARK  174  A    between atoms: _442  and  _443
REMARK  175  A    between atoms: _442  and  _445
REMARK  176  A    between atoms: _445  and  _446
REMARK  177  A    between atoms: _449  and  _451
REMARK  178  A    between atoms: _451  and  _452
REMARK  179  A    between atoms: _455  and  _457
REMARK  180  A    between atoms: _457  and  _458
REMARK  181  A    between atoms: _457  and  _460
REMARK  182  A    between atoms: _460  and  _461
REMARK  183  A    between atoms: _464  and  _466
REMARK  184  A    between atoms: _466  and  _467
REMARK  185  A    between atoms: _466  and  _469
REMARK  186  A    between atoms: _469  and  _470
REMARK  187  A    between atoms: _473  and  _475
REMARK  188  A    between atoms: _475  and  _476
REMARK  189  A    between atoms: _475  and  _478
REMARK  190  A    between atoms: _478  and  _479
REMARK  191  A    between atoms: _479  and  _480
REMARK  192  A    between atoms: _480  and  _481
REMARK  193  A    between atoms: _490  and  _492
REMARK  194  A    between atoms: _492  and  _493
REMARK  195  A    between atoms: _492  and  _495
REMARK  196  A    between atoms: _495  and  _496
REMARK  197  A    between atoms: _496  and  _497
REMARK  198  A    between atoms: _502  and  _504
REMARK  199  A    between atoms: _504  and  _505
REMARK  200  A    between atoms: _504  and  _507
REMARK  201  A    between atoms: _507  and  _508
REMARK  202  A    between atoms: _508  and  _509
REMARK  203  A    between atoms: _509  and  _510
REMARK  204  A    between atoms: _520  and  _521
REMARK  205  A    between atoms: _526  and  _528
REMARK  206  A    between atoms: _528  and  _529
REMARK  207  A    between atoms: _528  and  _531
REMARK  208  A    between atoms: _531  and  _532
REMARK  209  A    between atoms: _535  and  _537
REMARK  210  A    between atoms: _537  and  _538
REMARK  211  A    between atoms: _537  and  _540
REMARK  212  A    between atoms: _540  and  _541
REMARK  213  A    between atoms: _547  and  _548
REMARK  214  A    between atoms: _553  and  _555
REMARK  215  A    between atoms: _555  and  _556
REMARK  216  A    between atoms: _555  and  _558
REMARK  217  A    between atoms: _561  and  _563
REMARK  218  A    between atoms: _563  and  _564
REMARK  219  A    between atoms: _563  and  _566
REMARK  220  A    between atoms: _566  and  _567
REMARK  221  A    between atoms: _572  and  _574
REMARK  222  A    between atoms: _574  and  _575
REMARK  223  A    between atoms: _574  and  _577
REMARK  224  A    between atoms: _577  and  _578
REMARK  225  A    between atoms: _583  and  _585
REMARK  226  A    between atoms: _585  and  _586
REMARK  227  A    between atoms: _585  and  _588
REMARK  228  A    between atoms: _588  and  _589
REMARK  229  A    between atoms: _589  and  _590
REMARK  230  A    between atoms: _592  and  _594
REMARK  231  A    between atoms: _594  and  _595
REMARK  232  A    between atoms: _594  and  _597
REMARK  233  A    between atoms: _597  and  _598
REMARK  234  A    between atoms: _603  and  _604
REMARK  235  A    between atoms: _606  and  _608
REMARK  236  A    between atoms: _608  and  _609
REMARK  237  A    between atoms: _608  and  _611
REMARK  238  A    between atoms: _611  and  _612
REMARK  239  A    between atoms: _612  and  _613
REMARK  240  A    between atoms: _618  and  _620
REMARK  241  A    between atoms: _620  and  _621
REMARK  242  A    between atoms: _620  and  _623
REMARK  243  A    between atoms: _623  and  _624
REMARK  244  A    between atoms: _628  and  _629
REMARK  245  A    between atoms: _634  and  _636
REMARK  246  A    between atoms: _636  and  _637
REMARK  247  A    between atoms: _636  and  _639
REMARK  248  A    between atoms: _639  and  _640
REMARK  249  A    between atoms: _646  and  _648
REMARK  250  A    between atoms: _648  and  _649
REMARK  251  A    between atoms: _648  and  _651
REMARK  252  A    between atoms: _651  and  _652
REMARK  253  A    between atoms: _652  and  _653
REMARK  254  A    between atoms: _658  and  _660
REMARK  255  A    between atoms: _660  and  _661
REMARK  256  A    between atoms: _660  and  _663
REMARK  257  A    between atoms: _663  and  _664
REMARK  258  A    between atoms: _667  and  _669
REMARK  259  A    between atoms: _669  and  _670
REMARK  260  A    between atoms: _669  and  _672
REMARK  261  A    between atoms: _672  and  _673
REMARK  262  A    between atoms: _678  and  _679
REMARK  263  A    between atoms: _681  and  _683
REMARK  264  A    between atoms: _683  and  _684
REMARK  265  A    between atoms: _683  and  _686
REMARK  266  A    between atoms: _686  and  _687
REMARK  267  A    between atoms: _692  and  _693
REMARK  268  A    between atoms: _695  and  _697
REMARK  269  A    between atoms: _697  and  _698
REMARK  270  A    between atoms: _697  and  _700
REMARK  271  A    between atoms: _700  and  _701
REMARK  272  A    between atoms: _701  and  _702
REMARK  273  A    between atoms: _705  and  _707
REMARK  274  A    between atoms: _707  and  _708
REMARK  275  A    between atoms: _707  and  _710
REMARK  276  A    between atoms: _710  and  _711
REMARK  277  A    between atoms: _711  and  _712
REMARK  278  A    between atoms: _712  and  _713
REMARK  279  A    between atoms: _722  and  _724
REMARK  280  A    between atoms: _724  and  _725
REMARK  281  A    between atoms: _724  and  _727
REMARK  282  A    between atoms: _727  and  _728
REMARK  283  A    between atoms: _738  and  _740
REMARK  284  A    between atoms: _740  and  _741
REMARK  285  A    between atoms: _740  and  _743
REMARK  286  A    between atoms: _743  and  _744
REMARK  287  A    between atoms: _747  and  _749
REMARK  288  A    between atoms: _749  and  _750
REMARK  289  A    between atoms: _753  and  _755
REMARK  290  A    between atoms: _755  and  _756
REMARK  291  A    between atoms: _755  and  _758
REMARK  292  A    between atoms: _758  and  _759
REMARK  293  A    between atoms: _762  and  _764
REMARK  294  A    between atoms: _764  and  _765
REMARK  295  A    between atoms: _764  and  _767
REMARK  296  A    between atoms: _767  and  _768
REMARK  297  A    between atoms: _768  and  _769
REMARK  298  A    between atoms: _769  and  _770
REMARK  299  A    between atoms: _770  and  _771
REMARK  300  A    between atoms: _775  and  _777
REMARK  301  A    between atoms: _777  and  _778
REMARK  302  A    between atoms: _777  and  _780
REMARK  303  A    between atoms: _780  and  _781
REMARK                            x       y       z     vdW  Elec       q    Type
REMARK                         _______ _______ _______ _____ _____    ______ ____
ROOT
ATOM      1  O   HOH     1     -10.439  -6.389  -7.937  0.00  0.00    +0.000 OA
ENDROOT
TORSDOF 0
REMARK  Name = ../refined-set-2016/1y3p/1y3p_pocket.pdb
REMARK  303 active torsions:
REMARK  status: ('A' for Active; 'I' for Inactive)
REMARK    1  A    between atoms: _1  and  _3
REMARK    2  A    between atoms: _3  and  _4
REMARK    3  A    between atoms: _3  and  _6
REMARK    4  A    between atoms: _6  and  _7
REMARK    5  A    between atoms: _12  and  _14
REMARK    6  A    between atoms: _14  and  _15
REMARK    7  A    between atoms: _14  and  _17
REMARK    8  A    between atoms: _17  and  _18
REMARK    9  A    between atoms: _24  and  _26
REMARK   10  A    between atoms: _26  and  _27
REMARK   11  A    between atoms: _26  and  _29
REMARK   12  A    between atoms: _29  and  _30
REMARK   13  A    between atoms: _30  and  _31
REMARK   14  A    between atoms: _31  and  _32
REMARK   15  A    between atoms: _41  and  _43
REMARK   16  A    between atoms: _43  and  _44
REMARK   17  A    between atoms: _43  and  _46
REMARK   18  A    between atoms: _46  and  _47
REMARK   19  A    between atoms: _50  and  _52
REMARK   20  A    between atoms: _52  and  _53
REMARK   21  A    between atoms: _52  and  _55
REMARK   22  A    between atoms: _55  and  _56
REMARK   23  A    between atoms: _56  and  _57
REMARK   24  A    between atoms: _57  and  _58
REMARK   25  A    between atoms: _58  and  _59
REMARK   26  A    between atoms: _63  and  _65
REMARK   27  A    between atoms: _65  and  _66
REMARK   28  A    between atoms: _65  and  _68
REMARK   29  A    between atoms: _68  and  _69
REMARK   30  A    between atoms: _79  and  _81
REMARK   31  A    between atoms: _81  and  _82
REMARK   32  A    between atoms: _81  and  _84
REMARK   33  A    between atoms: _84  and  _85
REMARK   34  A    between atoms: _88  and  _90
REMARK   35  A    between atoms: _90  and  _91
REMARK   36  A    between atoms: _90  and  _93
REMARK   37  A    between atoms: _93  and  _94
REMARK   38  A    between atoms: _99  and  _101
REMARK   39  A    between atoms: _101  and  _102
REMARK   40  A    between atoms: _101  and  _104
REMARK   41  A    between atoms: _104  and  _105
REMARK   42  A    between atoms: _107  and  _109
REMARK   43  A    between atoms: _109  and  _110
REMARK   44  A    between atoms: _109  and  _112
REMARK   45  A    between atoms: _112  and  _113
REMARK   46  A    between atoms: _113  and  _114
REMARK   47  A    between atoms: _119  and  _121
REMARK   48  A    between atoms: _121  and  _122
REMARK   49  A    between atoms: _121  and  _124
REMARK   50  A    between atoms: _124  and  _125
REMARK   51  A    between atoms: _125  and  _126
REMARK   52  A    between atoms: _129  and  _131
REMARK   53  A    between atoms: _131  and  _132
REMARK   54  A    between atoms: _134  and  _136
REMARK   55  A    between atoms: _136  and  _137
REMARK   56  A    between atoms: _136  and  _139
REMARK   57  A    between atoms: _139  and  _140
REMARK   58  A    between atoms: _143  and  _145
REMARK   59  A    between atoms: _145  and  _146
REMARK   60  A    between atoms: _145  and  _148
REMARK   61  A    between atoms: _148  and  _149
REMARK   62  A    between atoms: _154  and  _156
REMARK   63  A    between atoms: _156  and  _157
REMARK   64  A    between atoms: _156  and  _159
REMARK   65  A    between atoms: _159  and  _160
REMARK   66  A    between atoms: _163  and  _165
REMARK   67  A    between atoms: _165  and  _166
REMARK   68  A    between atoms: _165  and  _168
REMARK   69  A    between atoms: _168  and  _169
REMARK   70  A    between atoms: _169  and  _170
REMARK   71  A    between atoms: _170  and  _171
REMARK   72  A    between atoms: _171  and  _172
REMARK   73  A    between atoms: _176  and  _178
REMARK   74  A    between atoms: _178  and  _179
REMARK   75  A    between atoms: _178  and  _181
REMARK   76  A    between atoms: _181  and  _182
REMARK   77  A    between atoms: _187  and  _188
REMARK   78  A    between atoms: _191  and  _192
REMARK   79  A    between atoms: _197  and  _199
REMARK   80  A    between atoms: _199  and  _200
REMARK   81  A    between atoms: _199  and  _202
REMARK   82  A    between atoms: _202  and  _203
REMARK   83  A    between atoms: _206  and  _208
REMARK   84  A    between atoms: _208  and  _209
REMARK   85  A    between atoms: _211  and  _213
REMARK   86  A    between atoms: _213  and  _214
REMARK   87  A    between atoms: _213  and  _216
REMARK   88  A    between atoms: _219  and  _221
REMARK   89  A    between atoms: _221  and  _222
REMARK   90  A    between atoms: _221  and  _224
REMARK   91  A    between atoms: _224  and  _225
REMARK   92  A    between atoms: _227  and  _229
REMARK   93  A    between atoms: _229  and  _230
REMARK   94  A    between atoms: _229  and  _232
REMARK   95  A    between atoms: _232  and  _233
REMARK   96  A    between atoms: _233  and  _234
REMARK   97  A    between atoms: _234  and  _235
REMARK   98  A    between atoms: _244  and  _246
REMARK   99  A    between atoms: _246  and  _247
REMARK  100  A    between atoms: _246  and  _249
REMARK  101  A    between atoms: _249  and  _250
REMARK  102  A    between atoms: _255  and  _257
REMARK  103  A    between atoms: _257  and  _258
REMARK  104  A    between atoms: _257  and  _260
REMARK  105  A    between atoms: _260  and  _261
REMARK  106  A    between atoms: _261  and  _262
REMARK  107  A    between atoms: _262  and  _263
REMARK  108  A    between atoms: _272  and  _274
REMARK  109  A    between atoms: _274  and  _275
REMARK  110  A    between atoms: _274  and  _277
REMARK  111  A    between atoms: _277  and  _278
REMARK  112  A    between atoms: _282  and  _283
REMARK  113  A    between atoms: _288  and  _290
REMARK  114  A    between atoms: _290  and  _291
REMARK  115  A    between atoms: _290  and  _293
REMARK  116  A    between atoms: _293  and  _294
REMARK  117  A    between atoms: _294  and  _295
REMARK  118  A    between atoms: _298  and  _300
REMARK  119  A    between atoms: _300  and  _301
REMARK  120  A    between atoms: _300  and  _303
REMARK  121  A    between atoms: _303  and  _304
REMARK  122  A    between atoms: _304  and  _305
REMARK  123  A    between atoms: _308  and  _310
REMARK  124  A    between atoms: _310  and  _311
REMARK  125  A    between atoms: _310  and  _313
REMARK  126  A    between atoms: _313  and  _314
REMARK  127  A    between atoms: _319  and  _321
REMARK  128  A    between atoms: _321  and  _322
REMARK  129  A    between atoms: _321  and  _324
REMARK  130  A    between atoms: _324  and  _325
REMARK  131  A    between atoms: _328  and  _330
REMARK  132  A    between atoms: _330  and  _331
REMARK  133  A    between atoms: _330  and  _333
REMARK  134  A    between atoms: _333  and  _334
REMARK  135  A    between atoms: _344  and  _346
REMARK  136  A    between atoms: _346  and  _347
REMARK  137  A    between atoms: _346  and  _349
REMARK  138  A    between atoms: _349  and  _350
REMARK  139  A    between atoms: _350  and  _351
REMARK  140  A    between atoms: _353  and  _355
REMARK  141  A    between atoms: _355  and  _356
REMARK  142  A    between atoms: _355  and  _358
REMARK  143  A    between atoms: _358  and  _359
REMARK  144  A    between atoms: _359  and  _360
REMARK  145  A    between atoms: _360  and  _361
REMARK  146  A    between atoms: _361  and  _362
REMARK  147  A    between atoms: _366  and  _368
REMARK  148  A    between atoms: _368  and  _369
REMARK  149  A    between atoms: _372  and  _374
REMARK  150  A    between atoms: _374  and  _375
REMARK  151  A    between atoms: _374  and  _377
REMARK  152  A    between atoms: _377  and  _378
REMARK  153  A    between atoms: _378  and  _379
REMARK  154  A    between atoms: _379  and  _380
REMARK  155  A    between atoms: _389  and  _391
REMARK  156  A    between atoms: _391  and  _392
REMARK  157  A    between atoms: _391  and  _394
REMARK  158  A    between atoms: _394  and  _395
REMARK  159  A    between atoms: _398  and  _400
REMARK  160  A    between atoms: _400  and  _401
REMARK  161  A    between atoms: _400  and  _403
REMARK  162  A    between atoms: _403  and  _404
REMARK  163  A    between atoms: _414  and  _416
REMARK  164  A    between atoms: _416  and  _417
REMARK  165  A    between atoms: _416  and  _419
REMARK  166  A    between atoms: _419  and  _420
REMARK  167  A    between atoms: _426  and  _428
REMARK  168  A    between atoms: _428  and  _429
REMARK  169  A    between atoms: _432  and  _434
REMARK  170  A    between atoms: _434  and  _435
REMARK  171  A    between atoms: _434  and  _437
REMARK  172  A    between atoms: _437  and  _438
REMARK  173  A    between atoms: _440  and  _442
REMARK  174  A    between atoms: _442  and  _443
REMARK  175  A    between atoms: _442  and  _445
REMARK  176  A    between atoms: _445  and  _446
REMARK  177  A    between atoms: _449  and  _451
REMARK  178  A    between atoms: _451  and  _452
REMARK  179  A    between atoms: _455  and  _457
REMARK  180  A    between atoms: _457  and  _458
REMARK  181  A    between atoms: _457  and  _460
REMARK  182  A    between atoms: _460  and  _461
REMARK  183  A    between atoms: _464  and  _466
REMARK  184  A    between atoms: _466  and  _467
REMARK  185  A    between atoms: _466  and  _469
REMARK  186  A    between atoms: _469  and  _470
REMARK  187  A    between atoms: _473  and  _475
REMARK  188  A    between atoms: _475  and  _476
REMARK  189  A    between atoms: _475  and  _478
REMARK  190  A    between atoms: _478  and  _479
REMARK  191  A    between atoms: _479  and  _480
REMARK  192  A    between atoms: _480  and  _481
REMARK  193  A    between atoms: _490  and  _492
REMARK  194  A    between atoms: _492  and  _493
REMARK  195  A    between atoms: _492  and  _495
REMARK  196  A    between atoms: _495  and  _496
REMARK  197  A    between atoms: _496  and  _497
REMARK  198  A    between atoms: _502  and  _504
REMARK  199  A    between atoms: _504  and  _505
REMARK  200  A    between atoms: _504  and  _507
REMARK  201  A    between atoms: _507  and  _508
REMARK  202  A    between atoms: _508  and  _509
REMARK  203  A    between atoms: _509  and  _510
REMARK  204  A    between atoms: _520  and  _521
REMARK  205  A    between atoms: _526  and  _528
REMARK  206  A    between atoms: _528  and  _529
REMARK  207  A    between atoms: _528  and  _531
REMARK  208  A    between atoms: _531  and  _532
REMARK  209  A    between atoms: _535  and  _537
REMARK  210  A    between atoms: _537  and  _538
REMARK  211  A    between atoms: _537  and  _540
REMARK  212  A    between atoms: _540  and  _541
REMARK  213  A    between atoms: _547  and  _548
REMARK  214  A    between atoms: _553  and  _555
REMARK  215  A    between atoms: _555  and  _556
REMARK  216  A    between atoms: _555  and  _558
REMARK  217  A    between atoms: _561  and  _563
REMARK  218  A    between atoms: _563  and  _564
REMARK  219  A    between atoms: _563  and  _566
REMARK  220  A    between atoms: _566  and  _567
REMARK  221  A    between atoms: _572  and  _574
REMARK  222  A    between atoms: _574  and  _575
REMARK  223  A    between atoms: _574  and  _577
REMARK  224  A    between atoms: _577  and  _578
REMARK  225  A    between atoms: _583  and  _585
REMARK  226  A    between atoms: _585  and  _586
REMARK  227  A    between atoms: _585  and  _588
REMARK  228  A    between atoms: _588  and  _589
REMARK  229  A    between atoms: _589  and  _590
REMARK  230  A    between atoms: _592  and  _594
REMARK  231  A    between atoms: _594  and  _595
REMARK  232  A    between atoms: _594  and  _597
REMARK  233  A    between atoms: _597  and  _598
REMARK  234  A    between atoms: _603  and  _604
REMARK  235  A    between atoms: _606  and  _608
REMARK  236  A    between atoms: _608  and  _609
REMARK  237  A    between atoms: _608  and  _611
REMARK  238  A    between atoms: _611  and  _612
REMARK  239  A    between atoms: _612  and  _613
REMARK  240  A    between atoms: _618  and  _620
REMARK  241  A    between atoms: _620  and  _621
REMARK  242  A    between atoms: _620  and  _623
REMARK  243  A    between atoms: _623  and  _624
REMARK  244  A    between atoms: _628  and  _629
REMARK  245  A    between atoms: _634  and  _636
REMARK  246  A    between atoms: _636  and  _637
REMARK  247  A    between atoms: _636  and  _639
REMARK  248  A    between atoms: _639  and  _640
REMARK  249  A    between atoms: _646  and  _648
REMARK  250  A    between atoms: _648  and  _649
REMARK  251  A    between atoms: _648  and  _651
REMARK  252  A    between atoms: _651  and  _652
REMARK  253  A    between atoms: _652  and  _653
REMARK  254  A    between atoms: _658  and  _660
REMARK  255  A    between atoms: _660  and  _661
REMARK  256  A    between atoms: _660  and  _663
REMARK  257  A    between atoms: _663  and  _664
REMARK  258  A    between atoms: _667  and  _669
REMARK  259  A    between atoms: _669  and  _670
REMARK  260  A    between atoms: _669  and  _672
REMARK  261  A    between atoms: _672  and  _673
REMARK  262  A    between atoms: _678  and  _679
REMARK  263  A    between atoms: _681  and  _683
REMARK  264  A    between atoms: _683  and  _684
REMARK  265  A    between atoms: _683  and  _686
REMARK  266  A    between atoms: _686  and  _687
REMARK  267  A    between atoms: _692  and  _693
REMARK  268  A    between atoms: _695  and  _697
REMARK  269  A    between atoms: _697  and  _698
REMARK  270  A    between atoms: _697  and  _700
REMARK  271  A    between atoms: _700  and  _701
REMARK  272  A    between atoms: _701  and  _702
REMARK  273  A    between atoms: _705  and  _707
REMARK  274  A    between atoms: _707  and  _708
REMARK  275  A    between atoms: _707  and  _710
REMARK  276  A    between atoms: _710  and  _711
REMARK  277  A    between atoms: _711  and  _712
REMARK  278  A    between atoms: _712  and  _713
REMARK  279  A    between atoms: _722  and  _724
REMARK  280  A    between atoms: _724  and  _725
REMARK  281  A    between atoms: _724  and  _727
REMARK  282  A    between atoms: _727  and  _728
REMARK  283  A    between atoms: _738  and  _740
REMARK  284  A    between atoms: _740  and  _741
REMARK  285  A    between atoms: _740  and  _743
REMARK  286  A    between atoms: _743  and  _744
REMARK  287  A    between atoms: _747  and  _749
REMARK  288  A    between atoms: _749  and  _750
REMARK  289  A    between atoms: _753  and  _755
REMARK  290  A    between atoms: _755  and  _756
REMARK  291  A    between atoms: _755  and  _758
REMARK  292  A    between atoms: _758  and  _759
REMARK  293  A    between atoms: _762  and  _764
REMARK  294  A    between atoms: _764  and  _765
REMARK  295  A    between atoms: _764  and  _767
REMARK  296  A    between atoms: _767  and  _768
REMARK  297  A    between atoms: _768  and  _769
REMARK  298  A    between atoms: _769  and  _770
REMARK  299  A    between atoms: _770  and  _771
REMARK  300  A    between atoms: _775  and  _777
REMARK  301  A    between atoms: _777  and  _778
REMARK  302  A    between atoms: _777  and  _780
REMARK  303  A    between atoms: _780  and  _781
REMARK                            x       y       z     vdW  Elec       q    Type
REMARK                         _______ _______ _______ _____ _____    ______ ____
ROOT
ATOM      1  O   HOH     1     -18.589  -8.967 -19.965  0.00  0.00    +0.000 OA
ENDROOT
TORSDOF 0
REMARK  Name = ../refined-set-2016/1y3p/1y3p_pocket.pdb
REMARK  303 active torsions:
REMARK  status: ('A' for Active; 'I' for Inactive)
REMARK    1  A    between atoms: _1  and  _3
REMARK    2  A    between atoms: _3  and  _4
REMARK    3  A    between atoms: _3  and  _6
REMARK    4  A    between atoms: _6  and  _7
REMARK    5  A    between atoms: _12  and  _14
REMARK    6  A    between atoms: _14  and  _15
REMARK    7  A    between atoms: _14  and  _17
REMARK    8  A    between atoms: _17  and  _18
REMARK    9  A    between atoms: _24  and  _26
REMARK   10  A    between atoms: _26  and  _27
REMARK   11  A    between atoms: _26  and  _29
REMARK   12  A    between atoms: _29  and  _30
REMARK   13  A    between atoms: _30  and  _31
REMARK   14  A    between atoms: _31  and  _32
REMARK   15  A    between atoms: _41  and  _43
REMARK   16  A    between atoms: _43  and  _44
REMARK   17  A    between atoms: _43  and  _46
REMARK   18  A    between atoms: _46  and  _47
REMARK   19  A    between atoms: _50  and  _52
REMARK   20  A    between atoms: _52  and  _53
REMARK   21  A    between atoms: _52  and  _55
REMARK   22  A    between atoms: _55  and  _56
REMARK   23  A    between atoms: _56  and  _57
REMARK   24  A    between atoms: _57  and  _58
REMARK   25  A    between atoms: _58  and  _59
REMARK   26  A    between atoms: _63  and  _65
REMARK   27  A    between atoms: _65  and  _66
REMARK   28  A    between atoms: _65  and  _68
REMARK   29  A    between atoms: _68  and  _69
REMARK   30  A    between atoms: _79  and  _81
REMARK   31  A    between atoms: _81  and  _82
REMARK   32  A    between atoms: _81  and  _84
REMARK   33  A    between atoms: _84  and  _85
REMARK   34  A    between atoms: _88  and  _90
REMARK   35  A    between atoms: _90  and  _91
REMARK   36  A    between atoms: _90  and  _93
REMARK   37  A    between atoms: _93  and  _94
REMARK   38  A    between atoms: _99  and  _101
REMARK   39  A    between atoms: _101  and  _102
REMARK   40  A    between atoms: _101  and  _104
REMARK   41  A    between atoms: _104  and  _105
REMARK   42  A    between atoms: _107  and  _109
REMARK   43  A    between atoms: _109  and  _110
REMARK   44  A    between atoms: _109  and  _112
REMARK   45  A    between atoms: _112  and  _113
REMARK   46  A    between atoms: _113  and  _114
REMARK   47  A    between atoms: _119  and  _121
REMARK   48  A    between atoms: _121  and  _122
REMARK   49  A    between atoms: _121  and  _124
REMARK   50  A    between atoms: _124  and  _125
REMARK   51  A    between atoms: _125  and  _126
REMARK   52  A    between atoms: _129  and  _131
REMARK   53  A    between atoms: _131  and  _132
REMARK   54  A    between atoms: _134  and  _136
REMARK   55  A    between atoms: _136  and  _137
REMARK   56  A    between atoms: _136  and  _139
REMARK   57  A    between atoms: _139  and  _140
REMARK   58  A    between atoms: _143  and  _145
REMARK   59  A    between atoms: _145  and  _146
REMARK   60  A    between atoms: _145  and  _148
REMARK   61  A    between atoms: _148  and  _149
REMARK   62  A    between atoms: _154  and  _156
REMARK   63  A    between atoms: _156  and  _157
REMARK   64  A    between atoms: _156  and  _159
REMARK   65  A    between atoms: _159  and  _160
REMARK   66  A    between atoms: _163  and  _165
REMARK   67  A    between atoms: _165  and  _166
REMARK   68  A    between atoms: _165  and  _168
REMARK   69  A    between atoms: _168  and  _169
REMARK   70  A    between atoms: _169  and  _170
REMARK   71  A    between atoms: _170  and  _171
REMARK   72  A    between atoms: _171  and  _172
REMARK   73  A    between atoms: _176  and  _178
REMARK   74  A    between atoms: _178  and  _179
REMARK   75  A    between atoms: _178  and  _181
REMARK   76  A    between atoms: _181  and  _182
REMARK   77  A    between atoms: _187  and  _188
REMARK   78  A    between atoms: _191  and  _192
REMARK   79  A    between atoms: _197  and  _199
REMARK   80  A    between atoms: _199  and  _200
REMARK   81  A    between atoms: _199  and  _202
REMARK   82  A    between atoms: _202  and  _203
REMARK   83  A    between atoms: _206  and  _208
REMARK   84  A    between atoms: _208  and  _209
REMARK   85  A    between atoms: _211  and  _213
REMARK   86  A    between atoms: _213  and  _214
REMARK   87  A    between atoms: _213  and  _216
REMARK   88  A    between atoms: _219  and  _221
REMARK   89  A    between atoms: _221  and  _222
REMARK   90  A    between atoms: _221  and  _224
REMARK   91  A    between atoms: _224  and  _225
REMARK   92  A    between atoms: _227  and  _229
REMARK   93  A    between atoms: _229  and  _230
REMARK   94  A    between atoms: _229  and  _232
REMARK   95  A    between atoms: _232  and  _233
REMARK   96  A    between atoms: _233  and  _234
REMARK   97  A    between atoms: _234  and  _235
REMARK   98  A    between atoms: _244  and  _246
REMARK   99  A    between atoms: _246  and  _247
REMARK  100  A    between atoms: _246  and  _249
REMARK  101  A    between atoms: _249  and  _250
REMARK  102  A    between atoms: _255  and  _257
REMARK  103  A    between atoms: _257  and  _258
REMARK  104  A    between atoms: _257  and  _260
REMARK  105  A    between atoms: _260  and  _261
REMARK  106  A    between atoms: _261  and  _262
REMARK  107  A    between atoms: _262  and  _263
REMARK  108  A    between atoms: _272  and  _274
REMARK  109  A    between atoms: _274  and  _275
REMARK  110  A    between atoms: _274  and  _277
REMARK  111  A    between atoms: _277  and  _278
REMARK  112  A    between atoms: _282  and  _283
REMARK  113  A    between atoms: _288  and  _290
REMARK  114  A    between atoms: _290  and  _291
REMARK  115  A    between atoms: _290  and  _293
REMARK  116  A    between atoms: _293  and  _294
REMARK  117  A    between atoms: _294  and  _295
REMARK  118  A    between atoms: _298  and  _300
REMARK  119  A    between atoms: _300  and  _301
REMARK  120  A    between atoms: _300  and  _303
REMARK  121  A    between atoms: _303  and  _304
REMARK  122  A    between atoms: _304  and  _305
REMARK  123  A    between atoms: _308  and  _310
REMARK  124  A    between atoms: _310  and  _311
REMARK  125  A    between atoms: _310  and  _313
REMARK  126  A    between atoms: _313  and  _314
REMARK  127  A    between atoms: _319  and  _321
REMARK  128  A    between atoms: _321  and  _322
REMARK  129  A    between atoms: _321  and  _324
REMARK  130  A    between atoms: _324  and  _325
REMARK  131  A    between atoms: _328  and  _330
REMARK  132  A    between atoms: _330  and  _331
REMARK  133  A    between atoms: _330  and  _333
REMARK  134  A    between atoms: _333  and  _334
REMARK  135  A    between atoms: _344  and  _346
REMARK  136  A    between atoms: _346  and  _347
REMARK  137  A    between atoms: _346  and  _349
REMARK  138  A    between atoms: _349  and  _350
REMARK  139  A    between atoms: _350  and  _351
REMARK  140  A    between atoms: _353  and  _355
REMARK  141  A    between atoms: _355  and  _356
REMARK  142  A    between atoms: _355  and  _358
REMARK  143  A    between atoms: _358  and  _359
REMARK  144  A    between atoms: _359  and  _360
REMARK  145  A    between atoms: _360  and  _361
REMARK  146  A    between atoms: _361  and  _362
REMARK  147  A    between atoms: _366  and  _368
REMARK  148  A    between atoms: _368  and  _369
REMARK  149  A    between atoms: _372  and  _374
REMARK  150  A    between atoms: _374  and  _375
REMARK  151  A    between atoms: _374  and  _377
REMARK  152  A    between atoms: _377  and  _378
REMARK  153  A    between atoms: _378  and  _379
REMARK  154  A    between atoms: _379  and  _380
REMARK  155  A    between atoms: _389  and  _391
REMARK  156  A    between atoms: _391  and  _392
REMARK  157  A    between atoms: _391  and  _394
REMARK  158  A    between atoms: _394  and  _395
REMARK  159  A    between atoms: _398  and  _400
REMARK  160  A    between atoms: _400  and  _401
REMARK  161  A    between atoms: _400  and  _403
REMARK  162  A    between atoms: _403  and  _404
REMARK  163  A    between atoms: _414  and  _416
REMARK  164  A    between atoms: _416  and  _417
REMARK  165  A    between atoms: _416  and  _419
REMARK  166  A    between atoms: _419  and  _420
REMARK  167  A    between atoms: _426  and  _428
REMARK  168  A    between atoms: _428  and  _429
REMARK  169  A    between atoms: _432  and  _434
REMARK  170  A    between atoms: _434  and  _435
REMARK  171  A    between atoms: _434  and  _437
REMARK  172  A    between atoms: _437  and  _438
REMARK  173  A    between atoms: _440  and  _442
REMARK  174  A    between atoms: _442  and  _443
REMARK  175  A    between atoms: _442  and  _445
REMARK  176  A    between atoms: _445  and  _446
REMARK  177  A    between atoms: _449  and  _451
REMARK  178  A    between atoms: _451  and  _452
REMARK  179  A    between atoms: _455  and  _457
REMARK  180  A    between atoms: _457  and  _458
REMARK  181  A    between atoms: _457  and  _460
REMARK  182  A    between atoms: _460  and  _461
REMARK  183  A    between atoms: _464  and  _466
REMARK  184  A    between atoms: _466  and  _467
REMARK  185  A    between atoms: _466  and  _469
REMARK  186  A    between atoms: _469  and  _470
REMARK  187  A    between atoms: _473  and  _475
REMARK  188  A    between atoms: _475  and  _476
REMARK  189  A    between atoms: _475  and  _478
REMARK  190  A    between atoms: _478  and  _479
REMARK  191  A    between atoms: _479  and  _480
REMARK  192  A    between atoms: _480  and  _481
REMARK  193  A    between atoms: _490  and  _492
REMARK  194  A    between atoms: _492  and  _493
REMARK  195  A    between atoms: _492  and  _495
REMARK  196  A    between atoms: _495  and  _496
REMARK  197  A    between atoms: _496  and  _497
REMARK  198  A    between atoms: _502  and  _504
REMARK  199  A    between atoms: _504  and  _505
REMARK  200  A    between atoms: _504  and  _507
REMARK  201  A    between atoms: _507  and  _508
REMARK  202  A    between atoms: _508  and  _509
REMARK  203  A    between atoms: _509  and  _510
REMARK  204  A    between atoms: _520  and  _521
REMARK  205  A    between atoms: _526  and  _528
REMARK  206  A    between atoms: _528  and  _529
REMARK  207  A    between atoms: _528  and  _531
REMARK  208  A    between atoms: _531  and  _532
REMARK  209  A    between atoms: _535  and  _537
REMARK  210  A    between atoms: _537  and  _538
REMARK  211  A    between atoms: _537  and  _540
REMARK  212  A    between atoms: _540  and  _541
REMARK  213  A    between atoms: _547  and  _548
REMARK  214  A    between atoms: _553  and  _555
REMARK  215  A    between atoms: _555  and  _556
REMARK  216  A    between atoms: _555  and  _558
REMARK  217  A    between atoms: _561  and  _563
REMARK  218  A    between atoms: _563  and  _564
REMARK  219  A    between atoms: _563  and  _566
REMARK  220  A    between atoms: _566  and  _567
REMARK  221  A    between atoms: _572  and  _574
REMARK  222  A    between atoms: _574  and  _575
REMARK  223  A    between atoms: _574  and  _577
REMARK  224  A    between atoms: _577  and  _578
REMARK  225  A    between atoms: _583  and  _585
REMARK  226  A    between atoms: _585  and  _586
REMARK  227  A    between atoms: _585  and  _588
REMARK  228  A    between atoms: _588  and  _589
REMARK  229  A    between atoms: _589  and  _590
REMARK  230  A    between atoms: _592  and  _594
REMARK  231  A    between atoms: _594  and  _595
REMARK  232  A    between atoms: _594  and  _597
REMARK  233  A    between atoms: _597  and  _598
REMARK  234  A    between atoms: _603  and  _604
REMARK  235  A    between atoms: _606  and  _608
REMARK  236  A    between atoms: _608  and  _609
REMARK  237  A    between atoms: _608  and  _611
REMARK  238  A    between atoms: _611  and  _612
REMARK  239  A    between atoms: _612  and  _613
REMARK  240  A    between atoms: _618  and  _620
REMARK  241  A    between atoms: _620  and  _621
REMARK  242  A    between atoms: _620  and  _623
REMARK  243  A    between atoms: _623  and  _624
REMARK  244  A    between atoms: _628  and  _629
REMARK  245  A    between atoms: _634  and  _636
REMARK  246  A    between atoms: _636  and  _637
REMARK  247  A    between atoms: _636  and  _639
REMARK  248  A    between atoms: _639  and  _640
REMARK  249  A    between atoms: _646  and  _648
REMARK  250  A    between atoms: _648  and  _649
REMARK  251  A    between atoms: _648  and  _651
REMARK  252  A    between atoms: _651  and  _652
REMARK  253  A    between atoms: _652  and  _653
REMARK  254  A    between atoms: _658  and  _660
REMARK  255  A    between atoms: _660  and  _661
REMARK  256  A    between atoms: _660  and  _663
REMARK  257  A    between atoms: _663  and  _664
REMARK  258  A    between atoms: _667  and  _669
REMARK  259  A    between atoms: _669  and  _670
REMARK  260  A    between atoms: _669  and  _672
REMARK  261  A    between atoms: _672  and  _673
REMARK  262  A    between atoms: _678  and  _679
REMARK  263  A    between atoms: _681  and  _683
REMARK  264  A    between atoms: _683  and  _684
REMARK  265  A    between atoms: _683  and  _686
REMARK  266  A    between atoms: _686  and  _687
REMARK  267  A    between atoms: _692  and  _693
REMARK  268  A    between atoms: _695  and  _697
REMARK  269  A    between atoms: _697  and  _698
REMARK  270  A    between atoms: _697  and  _700
REMARK  271  A    between atoms: _700  and  _701
REMARK  272  A    between atoms: _701  and  _702
REMARK  273  A    between atoms: _705  and  _707
REMARK  274  A    between atoms: _707  and  _708
REMARK  275  A    between atoms: _707  and  _710
REMARK  276  A    between atoms: _710  and  _711
REMARK  277  A    between atoms: _711  and  _712
REMARK  278  A    between atoms: _712  and  _713
REMARK  279  A    between atoms: _722  and  _724
REMARK  280  A    between atoms: _724  and  _725
REMARK  281  A    between atoms: _724  and  _727
REMARK  282  A    between atoms: _727  and  _728
REMARK  283  A    between atoms: _738  and  _740
REMARK  284  A    between atoms: _740  and  _741
REMARK  285  A    between atoms: _740  and  _743
REMARK  286  A    between atoms: _743  and  _744
REMARK  287  A    between atoms: _747  and  _749
REMARK  288  A    between atoms: _749  and  _750
REMARK  289  A    between atoms: _753  and  _755
REMARK  290  A    between atoms: _755  and  _756
REMARK  291  A    between atoms: _755  and  _758
REMARK  292  A    between atoms: _758  and  _759
REMARK  293  A    between atoms: _762  and  _764
REMARK  294  A    between atoms: _764  and  _765
REMARK  295  A    between atoms: _764  and  _767
REMARK  296  A    between atoms: _767  and  _768
REMARK  297  A    between atoms: _768  and  _769
REMARK  298  A    between atoms: _769  and  _770
REMARK  299  A    between atoms: _770  and  _771
REMARK  300  A    between atoms: _775  and  _777
REMARK  301  A    between atoms: _777  and  _778
REMARK  302  A    between atoms: _777  and  _780
REMARK  303  A    between atoms: _780  and  _781
REMARK                            x       y       z     vdW  Elec       q    Type
REMARK                         _______ _______ _______ _____ _____    ______ ____
ROOT
ATOM      1  O   HOH     1     -23.154  -0.815 -10.742  0.00  0.00    +0.000 OA
ENDROOT
TORSDOF 0
REMARK  Name = ../refined-set-2016/1y3p/1y3p_pocket.pdb
REMARK  303 active torsions:
REMARK  status: ('A' for Active; 'I' for Inactive)
REMARK    1  A    between atoms: _1  and  _3
REMARK    2  A    between atoms: _3  and  _4
REMARK    3  A    between atoms: _3  and  _6
REMARK    4  A    between atoms: _6  and  _7
REMARK    5  A    between atoms: _12  and  _14
REMARK    6  A    between atoms: _14  and  _15
REMARK    7  A    between atoms: _14  and  _17
REMARK    8  A    between atoms: _17  and  _18
REMARK    9  A    between atoms: _24  and  _26
REMARK   10  A    between atoms: _26  and  _27
REMARK   11  A    between atoms: _26  and  _29
REMARK   12  A    between atoms: _29  and  _30
REMARK   13  A    between atoms: _30  and  _31
REMARK   14  A    between atoms: _31  and  _32
REMARK   15  A    between atoms: _41  and  _43
REMARK   16  A    between atoms: _43  and  _44
REMARK   17  A    between atoms: _43  and  _46
REMARK   18  A    between atoms: _46  and  _47
REMARK   19  A    between atoms: _50  and  _52
REMARK   20  A    between atoms: _52  and  _53
REMARK   21  A    between atoms: _52  and  _55
REMARK   22  A    between atoms: _55  and  _56
REMARK   23  A    between atoms: _56  and  _57
REMARK   24  A    between atoms: _57  and  _58
REMARK   25  A    between atoms: _58  and  _59
REMARK   26  A    between atoms: _63  and  _65
REMARK   27  A    between atoms: _65  and  _66
REMARK   28  A    between atoms: _65  and  _68
REMARK   29  A    between atoms: _68  and  _69
REMARK   30  A    between atoms: _79  and  _81
REMARK   31  A    between atoms: _81  and  _82
REMARK   32  A    between atoms: _81  and  _84
REMARK   33  A    between atoms: _84  and  _85
REMARK   34  A    between atoms: _88  and  _90
REMARK   35  A    between atoms: _90  and  _91
REMARK   36  A    between atoms: _90  and  _93
REMARK   37  A    between atoms: _93  and  _94
REMARK   38  A    between atoms: _99  and  _101
REMARK   39  A    between atoms: _101  and  _102
REMARK   40  A    between atoms: _101  and  _104
REMARK   41  A    between atoms: _104  and  _105
REMARK   42  A    between atoms: _107  and  _109
REMARK   43  A    between atoms: _109  and  _110
REMARK   44  A    between atoms: _109  and  _112
REMARK   45  A    between atoms: _112  and  _113
REMARK   46  A    between atoms: _113  and  _114
REMARK   47  A    between atoms: _119  and  _121
REMARK   48  A    between atoms: _121  and  _122
REMARK   49  A    between atoms: _121  and  _124
REMARK   50  A    between atoms: _124  and  _125
REMARK   51  A    between atoms: _125  and  _126
REMARK   52  A    between atoms: _129  and  _131
REMARK   53  A    between atoms: _131  and  _132
REMARK   54  A    between atoms: _134  and  _136
REMARK   55  A    between atoms: _136  and  _137
REMARK   56  A    between atoms: _136  and  _139
REMARK   57  A    between atoms: _139  and  _140
REMARK   58  A    between atoms: _143  and  _145
REMARK   59  A    between atoms: _145  and  _146
REMARK   60  A    between atoms: _145  and  _148
REMARK   61  A    between atoms: _148  and  _149
REMARK   62  A    between atoms: _154  and  _156
REMARK   63  A    between atoms: _156  and  _157
REMARK   64  A    between atoms: _156  and  _159
REMARK   65  A    between atoms: _159  and  _160
REMARK   66  A    between atoms: _163  and  _165
REMARK   67  A    between atoms: _165  and  _166
REMARK   68  A    between atoms: _165  and  _168
REMARK   69  A    between atoms: _168  and  _169
REMARK   70  A    between atoms: _169  and  _170
REMARK   71  A    between atoms: _170  and  _171
REMARK   72  A    between atoms: _171  and  _172
REMARK   73  A    between atoms: _176  and  _178
REMARK   74  A    between atoms: _178  and  _179
REMARK   75  A    between atoms: _178  and  _181
REMARK   76  A    between atoms: _181  and  _182
REMARK   77  A    between atoms: _187  and  _188
REMARK   78  A    between atoms: _191  and  _192
REMARK   79  A    between atoms: _197  and  _199
REMARK   80  A    between atoms: _199  and  _200
REMARK   81  A    between atoms: _199  and  _202
REMARK   82  A    between atoms: _202  and  _203
REMARK   83  A    between atoms: _206  and  _208
REMARK   84  A    between atoms: _208  and  _209
REMARK   85  A    between atoms: _211  and  _213
REMARK   86  A    between atoms: _213  and  _214
REMARK   87  A    between atoms: _213  and  _216
REMARK   88  A    between atoms: _219  and  _221
REMARK   89  A    between atoms: _221  and  _222
REMARK   90  A    between atoms: _221  and  _224
REMARK   91  A    between atoms: _224  and  _225
REMARK   92  A    between atoms: _227  and  _229
REMARK   93  A    between atoms: _229  and  _230
REMARK   94  A    between atoms: _229  and  _232
REMARK   95  A    between atoms: _232  and  _233
REMARK   96  A    between atoms: _233  and  _234
REMARK   97  A    between atoms: _234  and  _235
REMARK   98  A    between atoms: _244  and  _246
REMARK   99  A    between atoms: _246  and  _247
REMARK  100  A    between atoms: _246  and  _249
REMARK  101  A    between atoms: _249  and  _250
REMARK  102  A    between atoms: _255  and  _257
REMARK  103  A    between atoms: _257  and  _258
REMARK  104  A    between atoms: _257  and  _260
REMARK  105  A    between atoms: _260  and  _261
REMARK  106  A    between atoms: _261  and  _262
REMARK  107  A    between atoms: _262  and  _263
REMARK  108  A    between atoms: _272  and  _274
REMARK  109  A    between atoms: _274  and  _275
REMARK  110  A    between atoms: _274  and  _277
REMARK  111  A    between atoms: _277  and  _278
REMARK  112  A    between atoms: _282  and  _283
REMARK  113  A    between atoms: _288  and  _290
REMARK  114  A    between atoms: _290  and  _291
REMARK  115  A    between atoms: _290  and  _293
REMARK  116  A    between atoms: _293  and  _294
REMARK  117  A    between atoms: _294  and  _295
REMARK  118  A    between atoms: _298  and  _300
REMARK  119  A    between atoms: _300  and  _301
REMARK  120  A    between atoms: _300  and  _303
REMARK  121  A    between atoms: _303  and  _304
REMARK  122  A    between atoms: _304  and  _305
REMARK  123  A    between atoms: _308  and  _310
REMARK  124  A    between atoms: _310  and  _311
REMARK  125  A    between atoms: _310  and  _313
REMARK  126  A    between atoms: _313  and  _314
REMARK  127  A    between atoms: _319  and  _321
REMARK  128  A    between atoms: _321  and  _322
REMARK  129  A    between atoms: _321  and  _324
REMARK  130  A    between atoms: _324  and  _325
REMARK  131  A    between atoms: _328  and  _330
REMARK  132  A    between atoms: _330  and  _331
REMARK  133  A    between atoms: _330  and  _333
REMARK  134  A    between atoms: _333  and  _334
REMARK  135  A    between atoms: _344  and  _346
REMARK  136  A    between atoms: _346  and  _347
REMARK  137  A    between atoms: _346  and  _349
REMARK  138  A    between atoms: _349  and  _350
REMARK  139  A    between atoms: _350  and  _351
REMARK  140  A    between atoms: _353  and  _355
REMARK  141  A    between atoms: _355  and  _356
REMARK  142  A    between atoms: _355  and  _358
REMARK  143  A    between atoms: _358  and  _359
REMARK  144  A    between atoms: _359  and  _360
REMARK  145  A    between atoms: _360  and  _361
REMARK  146  A    between atoms: _361  and  _362
REMARK  147  A    between atoms: _366  and  _368
REMARK  148  A    between atoms: _368  and  _369
REMARK  149  A    between atoms: _372  and  _374
REMARK  150  A    between atoms: _374  and  _375
REMARK  151  A    between atoms: _374  and  _377
REMARK  152  A    between atoms: _377  and  _378
REMARK  153  A    between atoms: _378  and  _379
REMARK  154  A    between atoms: _379  and  _380
REMARK  155  A    between atoms: _389  and  _391
REMARK  156  A    between atoms: _391  and  _392
REMARK  157  A    between atoms: _391  and  _394
REMARK  158  A    between atoms: _394  and  _395
REMARK  159  A    between atoms: _398  and  _400
REMARK  160  A    between atoms: _400  and  _401
REMARK  161  A    between atoms: _400  and  _403
REMARK  162  A    between atoms: _403  and  _404
REMARK  163  A    between atoms: _414  and  _416
REMARK  164  A    between atoms: _416  and  _417
REMARK  165  A    between atoms: _416  and  _419
REMARK  166  A    between atoms: _419  and  _420
REMARK  167  A    between atoms: _426  and  _428
REMARK  168  A    between atoms: _428  and  _429
REMARK  169  A    between atoms: _432  and  _434
REMARK  170  A    between atoms: _434  and  _435
REMARK  171  A    between atoms: _434  and  _437
REMARK  172  A    between atoms: _437  and  _438
REMARK  173  A    between atoms: _440  and  _442
REMARK  174  A    between atoms: _442  and  _443
REMARK  175  A    between atoms: _442  and  _445
REMARK  176  A    between atoms: _445  and  _446
REMARK  177  A    between atoms: _449  and  _451
REMARK  178  A    between atoms: _451  and  _452
REMARK  179  A    between atoms: _455  and  _457
REMARK  180  A    between atoms: _457  and  _458
REMARK  181  A    between atoms: _457  and  _460
REMARK  182  A    between atoms: _460  and  _461
REMARK  183  A    between atoms: _464  and  _466
REMARK  184  A    between atoms: _466  and  _467
REMARK  185  A    between atoms: _466  and  _469
REMARK  186  A    between atoms: _469  and  _470
REMARK  187  A    between atoms: _473  and  _475
REMARK  188  A    between atoms: _475  and  _476
REMARK  189  A    between atoms: _475  and  _478
REMARK  190  A    between atoms: _478  and  _479
REMARK  191  A    between atoms: _479  and  _480
REMARK  192  A    between atoms: _480  and  _481
REMARK  193  A    between atoms: _490  and  _492
REMARK  194  A    between atoms: _492  and  _493
REMARK  195  A    between atoms: _492  and  _495
REMARK  196  A    between atoms: _495  and  _496
REMARK  197  A    between atoms: _496  and  _497
REMARK  198  A    between atoms: _502  and  _504
REMARK  199  A    between atoms: _504  and  _505
REMARK  200  A    between atoms: _504  and  _507
REMARK  201  A    between atoms: _507  and  _508
REMARK  202  A    between atoms: _508  and  _509
REMARK  203  A    between atoms: _509  and  _510
REMARK  204  A    between atoms: _520  and  _521
REMARK  205  A    between atoms: _526  and  _528
REMARK  206  A    between atoms: _528  and  _529
REMARK  207  A    between atoms: _528  and  _531
REMARK  208  A    between atoms: _531  and  _532
REMARK  209  A    between atoms: _535  and  _537
REMARK  210  A    between atoms: _537  and  _538
REMARK  211  A    between atoms: _537  and  _540
REMARK  212  A    between atoms: _540  and  _541
REMARK  213  A    between atoms: _547  and  _548
REMARK  214  A    between atoms: _553  and  _555
REMARK  215  A    between atoms: _555  and  _556
REMARK  216  A    between atoms: _555  and  _558
REMARK  217  A    between atoms: _561  and  _563
REMARK  218  A    between atoms: _563  and  _564
REMARK  219  A    between atoms: _563  and  _566
REMARK  220  A    between atoms: _566  and  _567
REMARK  221  A    between atoms: _572  and  _574
REMARK  222  A    between atoms: _574  and  _575
REMARK  223  A    between atoms: _574  and  _577
REMARK  224  A    between atoms: _577  and  _578
REMARK  225  A    between atoms: _583  and  _585
REMARK  226  A    between atoms: _585  and  _586
REMARK  227  A    between atoms: _585  and  _588
REMARK  228  A    between atoms: _588  and  _589
REMARK  229  A    between atoms: _589  and  _590
REMARK  230  A    between atoms: _592  and  _594
REMARK  231  A    between atoms: _594  and  _595
REMARK  232  A    between atoms: _594  and  _597
REMARK  233  A    between atoms: _597  and  _598
REMARK  234  A    between atoms: _603  and  _604
REMARK  235  A    between atoms: _606  and  _608
REMARK  236  A    between atoms: _608  and  _609
REMARK  237  A    between atoms: _608  and  _611
REMARK  238  A    between atoms: _611  and  _612
REMARK  239  A    between atoms: _612  and  _613
REMARK  240  A    between atoms: _618  and  _620
REMARK  241  A    between atoms: _620  and  _621
REMARK  242  A    between atoms: _620  and  _623
REMARK  243  A    between atoms: _623  and  _624
REMARK  244  A    between atoms: _628  and  _629
REMARK  245  A    between atoms: _634  and  _636
REMARK  246  A    between atoms: _636  and  _637
REMARK  247  A    between atoms: _636  and  _639
REMARK  248  A    between atoms: _639  and  _640
REMARK  249  A    between atoms: _646  and  _648
REMARK  250  A    between atoms: _648  and  _649
REMARK  251  A    between atoms: _648  and  _651
REMARK  252  A    between atoms: _651  and  _652
REMARK  253  A    between atoms: _652  and  _653
REMARK  254  A    between atoms: _658  and  _660
REMARK  255  A    between atoms: _660  and  _661
REMARK  256  A    between atoms: _660  and  _663
REMARK  257  A    between atoms: _663  and  _664
REMARK  258  A    between atoms: _667  and  _669
REMARK  259  A    between atoms: _669  and  _670
REMARK  260  A    between atoms: _669  and  _672
REMARK  261  A    between atoms: _672  and  _673
REMARK  262  A    between atoms: _678  and  _679
REMARK  263  A    between atoms: _681  and  _683
REMARK  264  A    between atoms: _683  and  _684
REMARK  265  A    between atoms: _683  and  _686
REMARK  266  A    between atoms: _686  and  _687
REMARK  267  A    between atoms: _692  and  _693
REMARK  268  A    between atoms: _695  and  _697
REMARK  269  A    between atoms: _697  and  _698
REMARK  270  A    between atoms: _697  and  _700
REMARK  271  A    between atoms: _700  and  _701
REMARK  272  A    between atoms: _701  and  _702
REMARK  273  A    between atoms: _705  and  _707
REMARK  274  A    between atoms: _707  and  _708
REMARK  275  A    between atoms: _707  and  _710
REMARK  276  A    between atoms: _710  and  _711
REMARK  277  A    between atoms: _711  and  _712
REMARK  278  A    between atoms: _712  and  _713
REMARK  279  A    between atoms: _722  and  _724
REMARK  280  A    between atoms: _724  and  _725
REMARK  281  A    between atoms: _724  and  _727
REMARK  282  A    between atoms: _727  and  _728
REMARK  283  A    between atoms: _738  and  _740
REMARK  284  A    between atoms: _740  and  _741
REMARK  285  A    between atoms: _740  and  _743
REMARK  286  A    between atoms: _743  and  _744
REMARK  287  A    between atoms: _747  and  _749
REMARK  288  A    between atoms: _749  and  _750
REMARK  289  A    between atoms: _753  and  _755
REMARK  290  A    between atoms: _755  and  _756
REMARK  291  A    between atoms: _755  and  _758
REMARK  292  A    between atoms: _758  and  _759
REMARK  293  A    between atoms: _762  and  _764
REMARK  294  A    between atoms: _764  and  _765
REMARK  295  A    between atoms: _764  and  _767
REMARK  296  A    between atoms: _767  and  _768
REMARK  297  A    between atoms: _768  and  _769
REMARK  298  A    between atoms: _769  and  _770
REMARK  299  A    between atoms: _770  and  _771
REMARK  300  A    between atoms: _775  and  _777
REMARK  301  A    between atoms: _777  and  _778
REMARK  302  A    between atoms: _777  and  _780
REMARK  303  A    between atoms: _780  and  _781
REMARK                            x       y       z     vdW  Elec       q    Type
REMARK                         _______ _______ _______ _____ _____    ______ ____
ROOT
ATOM      1  O   HOH     1     -21.223  -0.487 -17.008  0.00  0.00    +0.000 OA
ENDROOT
TORSDOF 0
REMARK  Name = ../refined-set-2016/1y3p/1y3p_pocket.pdb
REMARK  303 active torsions:
REMARK  status: ('A' for Active; 'I' for Inactive)
REMARK    1  A    between atoms: _1  and  _3
REMARK    2  A    between atoms: _3  and  _4
REMARK    3  A    between atoms: _3  and  _6
REMARK    4  A    between atoms: _6  and  _7
REMARK    5  A    between atoms: _12  and  _14
REMARK    6  A    between atoms: _14  and  _15
REMARK    7  A    between atoms: _14  and  _17
REMARK    8  A    between atoms: _17  and  _18
REMARK    9  A    between atoms: _24  and  _26
REMARK   10  A    between atoms: _26  and  _27
REMARK   11  A    between atoms: _26  and  _29
REMARK   12  A    between atoms: _29  and  _30
REMARK   13  A    between atoms: _30  and  _31
REMARK   14  A    between atoms: _31  and  _32
REMARK   15  A    between atoms: _41  and  _43
REMARK   16  A    between atoms: _43  and  _44
REMARK   17  A    between atoms: _43  and  _46
REMARK   18  A    between atoms: _46  and  _47
REMARK   19  A    between atoms: _50  and  _52
REMARK   20  A    between atoms: _52  and  _53
REMARK   21  A    between atoms: _52  and  _55
REMARK   22  A    between atoms: _55  and  _56
REMARK   23  A    between atoms: _56  and  _57
REMARK   24  A    between atoms: _57  and  _58
REMARK   25  A    between atoms: _58  and  _59
REMARK   26  A    between atoms: _63  and  _65
REMARK   27  A    between atoms: _65  and  _66
REMARK   28  A    between atoms: _65  and  _68
REMARK   29  A    between atoms: _68  and  _69
REMARK   30  A    between atoms: _79  and  _81
REMARK   31  A    between atoms: _81  and  _82
REMARK   32  A    between atoms: _81  and  _84
REMARK   33  A    between atoms: _84  and  _85
REMARK   34  A    between atoms: _88  and  _90
REMARK   35  A    between atoms: _90  and  _91
REMARK   36  A    between atoms: _90  and  _93
REMARK   37  A    between atoms: _93  and  _94
REMARK   38  A    between atoms: _99  and  _101
REMARK   39  A    between atoms: _101  and  _102
REMARK   40  A    between atoms: _101  and  _104
REMARK   41  A    between atoms: _104  and  _105
REMARK   42  A    between atoms: _107  and  _109
REMARK   43  A    between atoms: _109  and  _110
REMARK   44  A    between atoms: _109  and  _112
REMARK   45  A    between atoms: _112  and  _113
REMARK   46  A    between atoms: _113  and  _114
REMARK   47  A    between atoms: _119  and  _121
REMARK   48  A    between atoms: _121  and  _122
REMARK   49  A    between atoms: _121  and  _124
REMARK   50  A    between atoms: _124  and  _125
REMARK   51  A    between atoms: _125  and  _126
REMARK   52  A    between atoms: _129  and  _131
REMARK   53  A    between atoms: _131  and  _132
REMARK   54  A    between atoms: _134  and  _136
REMARK   55  A    between atoms: _136  and  _137
REMARK   56  A    between atoms: _136  and  _139
REMARK   57  A    between atoms: _139  and  _140
REMARK   58  A    between atoms: _143  and  _145
REMARK   59  A    between atoms: _145  and  _146
REMARK   60  A    between atoms: _145  and  _148
REMARK   61  A    between atoms: _148  and  _149
REMARK   62  A    between atoms: _154  and  _156
REMARK   63  A    between atoms: _156  and  _157
REMARK   64  A    between atoms: _156  and  _159
REMARK   65  A    between atoms: _159  and  _160
REMARK   66  A    between atoms: _163  and  _165
REMARK   67  A    between atoms: _165  and  _166
REMARK   68  A    between atoms: _165  and  _168
REMARK   69  A    between atoms: _168  and  _169
REMARK   70  A    between atoms: _169  and  _170
REMARK   71  A    between atoms: _170  and  _171
REMARK   72  A    between atoms: _171  and  _172
REMARK   73  A    between atoms: _176  and  _178
REMARK   74  A    between atoms: _178  and  _179
REMARK   75  A    between atoms: _178  and  _181
REMARK   76  A    between atoms: _181  and  _182
REMARK   77  A    between atoms: _187  and  _188
REMARK   78  A    between atoms: _191  and  _192
REMARK   79  A    between atoms: _197  and  _199
REMARK   80  A    between atoms: _199  and  _200
REMARK   81  A    between atoms: _199  and  _202
REMARK   82  A    between atoms: _202  and  _203
REMARK   83  A    between atoms: _206  and  _208
REMARK   84  A    between atoms: _208  and  _209
REMARK   85  A    between atoms: _211  and  _213
REMARK   86  A    between atoms: _213  and  _214
REMARK   87  A    between atoms: _213  and  _216
REMARK   88  A    between atoms: _219  and  _221
REMARK   89  A    between atoms: _221  and  _222
REMARK   90  A    between atoms: _221  and  _224
REMARK   91  A    between atoms: _224  and  _225
REMARK   92  A    between atoms: _227  and  _229
REMARK   93  A    between atoms: _229  and  _230
REMARK   94  A    between atoms: _229  and  _232
REMARK   95  A    between atoms: _232  and  _233
REMARK   96  A    between atoms: _233  and  _234
REMARK   97  A    between atoms: _234  and  _235
REMARK   98  A    between atoms: _244  and  _246
REMARK   99  A    between atoms: _246  and  _247
REMARK  100  A    between atoms: _246  and  _249
REMARK  101  A    between atoms: _249  and  _250
REMARK  102  A    between atoms: _255  and  _257
REMARK  103  A    between atoms: _257  and  _258
REMARK  104  A    between atoms: _257  and  _260
REMARK  105  A    between atoms: _260  and  _261
REMARK  106  A    between atoms: _261  and  _262
REMARK  107  A    between atoms: _262  and  _263
REMARK  108  A    between atoms: _272  and  _274
REMARK  109  A    between atoms: _274  and  _275
REMARK  110  A    between atoms: _274  and  _277
REMARK  111  A    between atoms: _277  and  _278
REMARK  112  A    between atoms: _282  and  _283
REMARK  113  A    between atoms: _288  and  _290
REMARK  114  A    between atoms: _290  and  _291
REMARK  115  A    between atoms: _290  and  _293
REMARK  116  A    between atoms: _293  and  _294
REMARK  117  A    between atoms: _294  and  _295
REMARK  118  A    between atoms: _298  and  _300
REMARK  119  A    between atoms: _300  and  _301
REMARK  120  A    between atoms: _300  and  _303
REMARK  121  A    between atoms: _303  and  _304
REMARK  122  A    between atoms: _304  and  _305
REMARK  123  A    between atoms: _308  and  _310
REMARK  124  A    between atoms: _310  and  _311
REMARK  125  A    between atoms: _310  and  _313
REMARK  126  A    between atoms: _313  and  _314
REMARK  127  A    between atoms: _319  and  _321
REMARK  128  A    between atoms: _321  and  _322
REMARK  129  A    between atoms: _321  and  _324
REMARK  130  A    between atoms: _324  and  _325
REMARK  131  A    between atoms: _328  and  _330
REMARK  132  A    between atoms: _330  and  _331
REMARK  133  A    between atoms: _330  and  _333
REMARK  134  A    between atoms: _333  and  _334
REMARK  135  A    between atoms: _344  and  _346
REMARK  136  A    between atoms: _346  and  _347
REMARK  137  A    between atoms: _346  and  _349
REMARK  138  A    between atoms: _349  and  _350
REMARK  139  A    between atoms: _350  and  _351
REMARK  140  A    between atoms: _353  and  _355
REMARK  141  A    between atoms: _355  and  _356
REMARK  142  A    between atoms: _355  and  _358
REMARK  143  A    between atoms: _358  and  _359
REMARK  144  A    between atoms: _359  and  _360
REMARK  145  A    between atoms: _360  and  _361
REMARK  146  A    between atoms: _361  and  _362
REMARK  147  A    between atoms: _366  and  _368
REMARK  148  A    between atoms: _368  and  _369
REMARK  149  A    between atoms: _372  and  _374
REMARK  150  A    between atoms: _374  and  _375
REMARK  151  A    between atoms: _374  and  _377
REMARK  152  A    between atoms: _377  and  _378
REMARK  153  A    between atoms: _378  and  _379
REMARK  154  A    between atoms: _379  and  _380
REMARK  155  A    between atoms: _389  and  _391
REMARK  156  A    between atoms: _391  and  _392
REMARK  157  A    between atoms: _391  and  _394
REMARK  158  A    between atoms: _394  and  _395
REMARK  159  A    between atoms: _398  and  _400
REMARK  160  A    between atoms: _400  and  _401
REMARK  161  A    between atoms: _400  and  _403
REMARK  162  A    between atoms: _403  and  _404
REMARK  163  A    between atoms: _414  and  _416
REMARK  164  A    between atoms: _416  and  _417
REMARK  165  A    between atoms: _416  and  _419
REMARK  166  A    between atoms: _419  and  _420
REMARK  167  A    between atoms: _426  and  _428
REMARK  168  A    between atoms: _428  and  _429
REMARK  169  A    between atoms: _432  and  _434
REMARK  170  A    between atoms: _434  and  _435
REMARK  171  A    between atoms: _434  and  _437
REMARK  172  A    between atoms: _437  and  _438
REMARK  173  A    between atoms: _440  and  _442
REMARK  174  A    between atoms: _442  and  _443
REMARK  175  A    between atoms: _442  and  _445
REMARK  176  A    between atoms: _445  and  _446
REMARK  177  A    between atoms: _449  and  _451
REMARK  178  A    between atoms: _451  and  _452
REMARK  179  A    between atoms: _455  and  _457
REMARK  180  A    between atoms: _457  and  _458
REMARK  181  A    between atoms: _457  and  _460
REMARK  182  A    between atoms: _460  and  _461
REMARK  183  A    between atoms: _464  and  _466
REMARK  184  A    between atoms: _466  and  _467
REMARK  185  A    between atoms: _466  and  _469
REMARK  186  A    between atoms: _469  and  _470
REMARK  187  A    between atoms: _473  and  _475
REMARK  188  A    between atoms: _475  and  _476
REMARK  189  A    between atoms: _475  and  _478
REMARK  190  A    between atoms: _478  and  _479
REMARK  191  A    between atoms: _479  and  _480
REMARK  192  A    between atoms: _480  and  _481
REMARK  193  A    between atoms: _490  and  _492
REMARK  194  A    between atoms: _492  and  _493
REMARK  195  A    between atoms: _492  and  _495
REMARK  196  A    between atoms: _495  and  _496
REMARK  197  A    between atoms: _496  and  _497
REMARK  198  A    between atoms: _502  and  _504
REMARK  199  A    between atoms: _504  and  _505
REMARK  200  A    between atoms: _504  and  _507
REMARK  201  A    between atoms: _507  and  _508
REMARK  202  A    between atoms: _508  and  _509
REMARK  203  A    between atoms: _509  and  _510
REMARK  204  A    between atoms: _520  and  _521
REMARK  205  A    between atoms: _526  and  _528
REMARK  206  A    between atoms: _528  and  _529
REMARK  207  A    between atoms: _528  and  _531
REMARK  208  A    between atoms: _531  and  _532
REMARK  209  A    between atoms: _535  and  _537
REMARK  210  A    between atoms: _537  and  _538
REMARK  211  A    between atoms: _537  and  _540
REMARK  212  A    between atoms: _540  and  _541
REMARK  213  A    between atoms: _547  and  _548
REMARK  214  A    between atoms: _553  and  _555
REMARK  215  A    between atoms: _555  and  _556
REMARK  216  A    between atoms: _555  and  _558
REMARK  217  A    between atoms: _561  and  _563
REMARK  218  A    between atoms: _563  and  _564
REMARK  219  A    between atoms: _563  and  _566
REMARK  220  A    between atoms: _566  and  _567
REMARK  221  A    between atoms: _572  and  _574
REMARK  222  A    between atoms: _574  and  _575
REMARK  223  A    between atoms: _574  and  _577
REMARK  224  A    between atoms: _577  and  _578
REMARK  225  A    between atoms: _583  and  _585
REMARK  226  A    between atoms: _585  and  _586
REMARK  227  A    between atoms: _585  and  _588
REMARK  228  A    between atoms: _588  and  _589
REMARK  229  A    between atoms: _589  and  _590
REMARK  230  A    between atoms: _592  and  _594
REMARK  231  A    between atoms: _594  and  _595
REMARK  232  A    between atoms: _594  and  _597
REMARK  233  A    between atoms: _597  and  _598
REMARK  234  A    between atoms: _603  and  _604
REMARK  235  A    between atoms: _606  and  _608
REMARK  236  A    between atoms: _608  and  _609
REMARK  237  A    between atoms: _608  and  _611
REMARK  238  A    between atoms: _611  and  _612
REMARK  239  A    between atoms: _612  and  _613
REMARK  240  A    between atoms: _618  and  _620
REMARK  241  A    between atoms: _620  and  _621
REMARK  242  A    between atoms: _620  and  _623
REMARK  243  A    between atoms: _623  and  _624
REMARK  244  A    between atoms: _628  and  _629
REMARK  245  A    between atoms: _634  and  _636
REMARK  246  A    between atoms: _636  and  _637
REMARK  247  A    between atoms: _636  and  _639
REMARK  248  A    between atoms: _639  and  _640
REMARK  249  A    between atoms: _646  and  _648
REMARK  250  A    between atoms: _648  and  _649
REMARK  251  A    between atoms: _648  and  _651
REMARK  252  A    between atoms: _651  and  _652
REMARK  253  A    between atoms: _652  and  _653
REMARK  254  A    between atoms: _658  and  _660
REMARK  255  A    between atoms: _660  and  _661
REMARK  256  A    between atoms: _660  and  _663
REMARK  257  A    between atoms: _663  and  _664
REMARK  258  A    between atoms: _667  and  _669
REMARK  259  A    between atoms: _669  and  _670
REMARK  260  A    between atoms: _669  and  _672
REMARK  261  A    between atoms: _672  and  _673
REMARK  262  A    between atoms: _678  and  _679
REMARK  263  A    between atoms: _681  and  _683
REMARK  264  A    between atoms: _683  and  _684
REMARK  265  A    between atoms: _683  and  _686
REMARK  266  A    between atoms: _686  and  _687
REMARK  267  A    between atoms: _692  and  _693
REMARK  268  A    between atoms: _695  and  _697
REMARK  269  A    between atoms: _697  and  _698
REMARK  270  A    between atoms: _697  and  _700
REMARK  271  A    between atoms: _700  and  _701
REMARK  272  A    between atoms: _701  and  _702
REMARK  273  A    between atoms: _705  and  _707
REMARK  274  A    between atoms: _707  and  _708
REMARK  275  A    between atoms: _707  and  _710
REMARK  276  A    between atoms: _710  and  _711
REMARK  277  A    between atoms: _711  and  _712
REMARK  278  A    between atoms: _712  and  _713
REMARK  279  A    between atoms: _722  and  _724
REMARK  280  A    between atoms: _724  and  _725
REMARK  281  A    between atoms: _724  and  _727
REMARK  282  A    between atoms: _727  and  _728
REMARK  283  A    between atoms: _738  and  _740
REMARK  284  A    between atoms: _740  and  _741
REMARK  285  A    between atoms: _740  and  _743
REMARK  286  A    between atoms: _743  and  _744
REMARK  287  A    between atoms: _747  and  _749
REMARK  288  A    between atoms: _749  and  _750
REMARK  289  A    between atoms: _753  and  _755
REMARK  290  A    between atoms: _755  and  _756
REMARK  291  A    between atoms: _755  and  _758
REMARK  292  A    between atoms: _758  and  _759
REMARK  293  A    between atoms: _762  and  _764
REMARK  294  A    between atoms: _764  and  _765
REMARK  295  A    between atoms: _764  and  _767
REMARK  296  A    between atoms: _767  and  _768
REMARK  297  A    between atoms: _768  and  _769
REMARK  298  A    between atoms: _769  and  _770
REMARK  299  A    between atoms: _770  and  _771
REMARK  300  A    between atoms: _775  and  _777
REMARK  301  A    between atoms: _777  and  _778
REMARK  302  A    between atoms: _777  and  _780
REMARK  303  A    between atoms: _780  and  _781
REMARK                            x       y       z     vdW  Elec       q    Type
REMARK                         _______ _______ _______ _____ _____    ______ ____
ROOT
ATOM      1  O   HOH     1     -21.121 -10.889  -4.660  0.00  0.00    +0.000 OA
ENDROOT
TORSDOF 0
REMARK  Name = ../refined-set-2016/1y3p/1y3p_pocket.pdb
REMARK  303 active torsions:
REMARK  status: ('A' for Active; 'I' for Inactive)
REMARK    1  A    between atoms: _1  and  _3
REMARK    2  A    between atoms: _3  and  _4
REMARK    3  A    between atoms: _3  and  _6
REMARK    4  A    between atoms: _6  and  _7
REMARK    5  A    between atoms: _12  and  _14
REMARK    6  A    between atoms: _14  and  _15
REMARK    7  A    between atoms: _14  and  _17
REMARK    8  A    between atoms: _17  and  _18
REMARK    9  A    between atoms: _24  and  _26
REMARK   10  A    between atoms: _26  and  _27
REMARK   11  A    between atoms: _26  and  _29
REMARK   12  A    between atoms: _29  and  _30
REMARK   13  A    between atoms: _30  and  _31
REMARK   14  A    between atoms: _31  and  _32
REMARK   15  A    between atoms: _41  and  _43
REMARK   16  A    between atoms: _43  and  _44
REMARK   17  A    between atoms: _43  and  _46
REMARK   18  A    between atoms: _46  and  _47
REMARK   19  A    between atoms: _50  and  _52
REMARK   20  A    between atoms: _52  and  _53
REMARK   21  A    between atoms: _52  and  _55
REMARK   22  A    between atoms: _55  and  _56
REMARK   23  A    between atoms: _56  and  _57
REMARK   24  A    between atoms: _57  and  _58
REMARK   25  A    between atoms: _58  and  _59
REMARK   26  A    between atoms: _63  and  _65
REMARK   27  A    between atoms: _65  and  _66
REMARK   28  A    between atoms: _65  and  _68
REMARK   29  A    between atoms: _68  and  _69
REMARK   30  A    between atoms: _79  and  _81
REMARK   31  A    between atoms: _81  and  _82
REMARK   32  A    between atoms: _81  and  _84
REMARK   33  A    between atoms: _84  and  _85
REMARK   34  A    between atoms: _88  and  _90
REMARK   35  A    between atoms: _90  and  _91
REMARK   36  A    between atoms: _90  and  _93
REMARK   37  A    between atoms: _93  and  _94
REMARK   38  A    between atoms: _99  and  _101
REMARK   39  A    between atoms: _101  and  _102
REMARK   40  A    between atoms: _101  and  _104
REMARK   41  A    between atoms: _104  and  _105
REMARK   42  A    between atoms: _107  and  _109
REMARK   43  A    between atoms: _109  and  _110
REMARK   44  A    between atoms: _109  and  _112
REMARK   45  A    between atoms: _112  and  _113
REMARK   46  A    between atoms: _113  and  _114
REMARK   47  A    between atoms: _119  and  _121
REMARK   48  A    between atoms: _121  and  _122
REMARK   49  A    between atoms: _121  and  _124
REMARK   50  A    between atoms: _124  and  _125
REMARK   51  A    between atoms: _125  and  _126
REMARK   52  A    between atoms: _129  and  _131
REMARK   53  A    between atoms: _131  and  _132
REMARK   54  A    between atoms: _134  and  _136
REMARK   55  A    between atoms: _136  and  _137
REMARK   56  A    between atoms: _136  and  _139
REMARK   57  A    between atoms: _139  and  _140
REMARK   58  A    between atoms: _143  and  _145
REMARK   59  A    between atoms: _145  and  _146
REMARK   60  A    between atoms: _145  and  _148
REMARK   61  A    between atoms: _148  and  _149
REMARK   62  A    between atoms: _154  and  _156
REMARK   63  A    between atoms: _156  and  _157
REMARK   64  A    between atoms: _156  and  _159
REMARK   65  A    between atoms: _159  and  _160
REMARK   66  A    between atoms: _163  and  _165
REMARK   67  A    between atoms: _165  and  _166
REMARK   68  A    between atoms: _165  and  _168
REMARK   69  A    between atoms: _168  and  _169
REMARK   70  A    between atoms: _169  and  _170
REMARK   71  A    between atoms: _170  and  _171
REMARK   72  A    between atoms: _171  and  _172
REMARK   73  A    between atoms: _176  and  _178
REMARK   74  A    between atoms: _178  and  _179
REMARK   75  A    between atoms: _178  and  _181
REMARK   76  A    between atoms: _181  and  _182
REMARK   77  A    between atoms: _187  and  _188
REMARK   78  A    between atoms: _191  and  _192
REMARK   79  A    between atoms: _197  and  _199
REMARK   80  A    between atoms: _199  and  _200
REMARK   81  A    between atoms: _199  and  _202
REMARK   82  A    between atoms: _202  and  _203
REMARK   83  A    between atoms: _206  and  _208
REMARK   84  A    between atoms: _208  and  _209
REMARK   85  A    between atoms: _211  and  _213
REMARK   86  A    between atoms: _213  and  _214
REMARK   87  A    between atoms: _213  and  _216
REMARK   88  A    between atoms: _219  and  _221
REMARK   89  A    between atoms: _221  and  _222
REMARK   90  A    between atoms: _221  and  _224
REMARK   91  A    between atoms: _224  and  _225
REMARK   92  A    between atoms: _227  and  _229
REMARK   93  A    between atoms: _229  and  _230
REMARK   94  A    between atoms: _229  and  _232
REMARK   95  A    between atoms: _232  and  _233
REMARK   96  A    between atoms: _233  and  _234
REMARK   97  A    between atoms: _234  and  _235
REMARK   98  A    between atoms: _244  and  _246
REMARK   99  A    between atoms: _246  and  _247
REMARK  100  A    between atoms: _246  and  _249
REMARK  101  A    between atoms: _249  and  _250
REMARK  102  A    between atoms: _255  and  _257
REMARK  103  A    between atoms: _257  and  _258
REMARK  104  A    between atoms: _257  and  _260
REMARK  105  A    between atoms: _260  and  _261
REMARK  106  A    between atoms: _261  and  _262
REMARK  107  A    between atoms: _262  and  _263
REMARK  108  A    between atoms: _272  and  _274
REMARK  109  A    between atoms: _274  and  _275
REMARK  110  A    between atoms: _274  and  _277
REMARK  111  A    between atoms: _277  and  _278
REMARK  112  A    between atoms: _282  and  _283
REMARK  113  A    between atoms: _288  and  _290
REMARK  114  A    between atoms: _290  and  _291
REMARK  115  A    between atoms: _290  and  _293
REMARK  116  A    between atoms: _293  and  _294
REMARK  117  A    between atoms: _294  and  _295
REMARK  118  A    between atoms: _298  and  _300
REMARK  119  A    between atoms: _300  and  _301
REMARK  120  A    between atoms: _300  and  _303
REMARK  121  A    between atoms: _303  and  _304
REMARK  122  A    between atoms: _304  and  _305
REMARK  123  A    between atoms: _308  and  _310
REMARK  124  A    between atoms: _310  and  _311
REMARK  125  A    between atoms: _310  and  _313
REMARK  126  A    between atoms: _313  and  _314
REMARK  127  A    between atoms: _319  and  _321
REMARK  128  A    between atoms: _321  and  _322
REMARK  129  A    between atoms: _321  and  _324
REMARK  130  A    between atoms: _324  and  _325
REMARK  131  A    between atoms: _328  and  _330
REMARK  132  A    between atoms: _330  and  _331
REMARK  133  A    between atoms: _330  and  _333
REMARK  134  A    between atoms: _333  and  _334
REMARK  135  A    between atoms: _344  and  _346
REMARK  136  A    between atoms: _346  and  _347
REMARK  137  A    between atoms: _346  and  _349
REMARK  138  A    between atoms: _349  and  _350
REMARK  139  A    between atoms: _350  and  _351
REMARK  140  A    between atoms: _353  and  _355
REMARK  141  A    between atoms: _355  and  _356
REMARK  142  A    between atoms: _355  and  _358
REMARK  143  A    between atoms: _358  and  _359
REMARK  144  A    between atoms: _359  and  _360
REMARK  145  A    between atoms: _360  and  _361
REMARK  146  A    between atoms: _361  and  _362
REMARK  147  A    between atoms: _366  and  _368
REMARK  148  A    between atoms: _368  and  _369
REMARK  149  A    between atoms: _372  and  _374
REMARK  150  A    between atoms: _374  and  _375
REMARK  151  A    between atoms: _374  and  _377
REMARK  152  A    between atoms: _377  and  _378
REMARK  153  A    between atoms: _378  and  _379
REMARK  154  A    between atoms: _379  and  _380
REMARK  155  A    between atoms: _389  and  _391
REMARK  156  A    between atoms: _391  and  _392
REMARK  157  A    between atoms: _391  and  _394
REMARK  158  A    between atoms: _394  and  _395
REMARK  159  A    between atoms: _398  and  _400
REMARK  160  A    between atoms: _400  and  _401
REMARK  161  A    between atoms: _400  and  _403
REMARK  162  A    between atoms: _403  and  _404
REMARK  163  A    between atoms: _414  and  _416
REMARK  164  A    between atoms: _416  and  _417
REMARK  165  A    between atoms: _416  and  _419
REMARK  166  A    between atoms: _419  and  _420
REMARK  167  A    between atoms: _426  and  _428
REMARK  168  A    between atoms: _428  and  _429
REMARK  169  A    between atoms: _432  and  _434
REMARK  170  A    between atoms: _434  and  _435
REMARK  171  A    between atoms: _434  and  _437
REMARK  172  A    between atoms: _437  and  _438
REMARK  173  A    between atoms: _440  and  _442
REMARK  174  A    between atoms: _442  and  _443
REMARK  175  A    between atoms: _442  and  _445
REMARK  176  A    between atoms: _445  and  _446
REMARK  177  A    between atoms: _449  and  _451
REMARK  178  A    between atoms: _451  and  _452
REMARK  179  A    between atoms: _455  and  _457
REMARK  180  A    between atoms: _457  and  _458
REMARK  181  A    between atoms: _457  and  _460
REMARK  182  A    between atoms: _460  and  _461
REMARK  183  A    between atoms: _464  and  _466
REMARK  184  A    between atoms: _466  and  _467
REMARK  185  A    between atoms: _466  and  _469
REMARK  186  A    between atoms: _469  and  _470
REMARK  187  A    between atoms: _473  and  _475
REMARK  188  A    between atoms: _475  and  _476
REMARK  189  A    between atoms: _475  and  _478
REMARK  190  A    between atoms: _478  and  _479
REMARK  191  A    between atoms: _479  and  _480
REMARK  192  A    between atoms: _480  and  _481
REMARK  193  A    between atoms: _490  and  _492
REMARK  194  A    between atoms: _492  and  _493
REMARK  195  A    between atoms: _492  and  _495
REMARK  196  A    between atoms: _495  and  _496
REMARK  197  A    between atoms: _496  and  _497
REMARK  198  A    between atoms: _502  and  _504
REMARK  199  A    between atoms: _504  and  _505
REMARK  200  A    between atoms: _504  and  _507
REMARK  201  A    between atoms: _507  and  _508
REMARK  202  A    between atoms: _508  and  _509
REMARK  203  A    between atoms: _509  and  _510
REMARK  204  A    between atoms: _520  and  _521
REMARK  205  A    between atoms: _526  and  _528
REMARK  206  A    between atoms: _528  and  _529
REMARK  207  A    between atoms: _528  and  _531
REMARK  208  A    between atoms: _531  and  _532
REMARK  209  A    between atoms: _535  and  _537
REMARK  210  A    between atoms: _537  and  _538
REMARK  211  A    between atoms: _537  and  _540
REMARK  212  A    between atoms: _540  and  _541
REMARK  213  A    between atoms: _547  and  _548
REMARK  214  A    between atoms: _553  and  _555
REMARK  215  A    between atoms: _555  and  _556
REMARK  216  A    between atoms: _555  and  _558
REMARK  217  A    between atoms: _561  and  _563
REMARK  218  A    between atoms: _563  and  _564
REMARK  219  A    between atoms: _563  and  _566
REMARK  220  A    between atoms: _566  and  _567
REMARK  221  A    between atoms: _572  and  _574
REMARK  222  A    between atoms: _574  and  _575
REMARK  223  A    between atoms: _574  and  _577
REMARK  224  A    between atoms: _577  and  _578
REMARK  225  A    between atoms: _583  and  _585
REMARK  226  A    between atoms: _585  and  _586
REMARK  227  A    between atoms: _585  and  _588
REMARK  228  A    between atoms: _588  and  _589
REMARK  229  A    between atoms: _589  and  _590
REMARK  230  A    between atoms: _592  and  _594
REMARK  231  A    between atoms: _594  and  _595
REMARK  232  A    between atoms: _594  and  _597
REMARK  233  A    between atoms: _597  and  _598
REMARK  234  A    between atoms: _603  and  _604
REMARK  235  A    between atoms: _606  and  _608
REMARK  236  A    between atoms: _608  and  _609
REMARK  237  A    between atoms: _608  and  _611
REMARK  238  A    between atoms: _611  and  _612
REMARK  239  A    between atoms: _612  and  _613
REMARK  240  A    between atoms: _618  and  _620
REMARK  241  A    between atoms: _620  and  _621
REMARK  242  A    between atoms: _620  and  _623
REMARK  243  A    between atoms: _623  and  _624
REMARK  244  A    between atoms: _628  and  _629
REMARK  245  A    between atoms: _634  and  _636
REMARK  246  A    between atoms: _636  and  _637
REMARK  247  A    between atoms: _636  and  _639
REMARK  248  A    between atoms: _639  and  _640
REMARK  249  A    between atoms: _646  and  _648
REMARK  250  A    between atoms: _648  and  _649
REMARK  251  A    between atoms: _648  and  _651
REMARK  252  A    between atoms: _651  and  _652
REMARK  253  A    between atoms: _652  and  _653
REMARK  254  A    between atoms: _658  and  _660
REMARK  255  A    between atoms: _660  and  _661
REMARK  256  A    between atoms: _660  and  _663
REMARK  257  A    between atoms: _663  and  _664
REMARK  258  A    between atoms: _667  and  _669
REMARK  259  A    between atoms: _669  and  _670
REMARK  260  A    between atoms: _669  and  _672
REMARK  261  A    between atoms: _672  and  _673
REMARK  262  A    between atoms: _678  and  _679
REMARK  263  A    between atoms: _681  and  _683
REMARK  264  A    between atoms: _683  and  _684
REMARK  265  A    between atoms: _683  and  _686
REMARK  266  A    between atoms: _686  and  _687
REMARK  267  A    between atoms: _692  and  _693
REMARK  268  A    between atoms: _695  and  _697
REMARK  269  A    between atoms: _697  and  _698
REMARK  270  A    between atoms: _697  and  _700
REMARK  271  A    between atoms: _700  and  _701
REMARK  272  A    between atoms: _701  and  _702
REMARK  273  A    between atoms: _705  and  _707
REMARK  274  A    between atoms: _707  and  _708
REMARK  275  A    between atoms: _707  and  _710
REMARK  276  A    between atoms: _710  and  _711
REMARK  277  A    between atoms: _711  and  _712
REMARK  278  A    between atoms: _712  and  _713
REMARK  279  A    between atoms: _722  and  _724
REMARK  280  A    between atoms: _724  and  _725
REMARK  281  A    between atoms: _724  and  _727
REMARK  282  A    between atoms: _727  and  _728
REMARK  283  A    between atoms: _738  and  _740
REMARK  284  A    between atoms: _740  and  _741
REMARK  285  A    between atoms: _740  and  _743
REMARK  286  A    between atoms: _743  and  _744
REMARK  287  A    between atoms: _747  and  _749
REMARK  288  A    between atoms: _749  and  _750
REMARK  289  A    between atoms: _753  and  _755
REMARK  290  A    between atoms: _755  and  _756
REMARK  291  A    between atoms: _755  and  _758
REMARK  292  A    between atoms: _758  and  _759
REMARK  293  A    between atoms: _762  and  _764
REMARK  294  A    between atoms: _764  and  _765
REMARK  295  A    between atoms: _764  and  _767
REMARK  296  A    between atoms: _767  and  _768
REMARK  297  A    between atoms: _768  and  _769
REMARK  298  A    between atoms: _769  and  _770
REMARK  299  A    between atoms: _770  and  _771
REMARK  300  A    between atoms: _775  and  _777
REMARK  301  A    between atoms: _777  and  _778
REMARK  302  A    between atoms: _777  and  _780
REMARK  303  A    between atoms: _780  and  _781
REMARK                            x       y       z     vdW  Elec       q    Type
REMARK                         _______ _______ _______ _____ _____    ______ ____
ROOT
ATOM      1  O   HOH     1     -11.418 -13.269  -1.975  0.00  0.00    +0.000 OA
ENDROOT
TORSDOF 0
REMARK  Name = ../refined-set-2016/1y3p/1y3p_pocket.pdb
REMARK  303 active torsions:
REMARK  status: ('A' for Active; 'I' for Inactive)
REMARK    1  A    between atoms: _1  and  _3
REMARK    2  A    between atoms: _3  and  _4
REMARK    3  A    between atoms: _3  and  _6
REMARK    4  A    between atoms: _6  and  _7
REMARK    5  A    between atoms: _12  and  _14
REMARK    6  A    between atoms: _14  and  _15
REMARK    7  A    between atoms: _14  and  _17
REMARK    8  A    between atoms: _17  and  _18
REMARK    9  A    between atoms: _24  and  _26
REMARK   10  A    between atoms: _26  and  _27
REMARK   11  A    between atoms: _26  and  _29
REMARK   12  A    between atoms: _29  and  _30
REMARK   13  A    between atoms: _30  and  _31
REMARK   14  A    between atoms: _31  and  _32
REMARK   15  A    between atoms: _41  and  _43
REMARK   16  A    between atoms: _43  and  _44
REMARK   17  A    between atoms: _43  and  _46
REMARK   18  A    between atoms: _46  and  _47
REMARK   19  A    between atoms: _50  and  _52
REMARK   20  A    between atoms: _52  and  _53
REMARK   21  A    between atoms: _52  and  _55
REMARK   22  A    between atoms: _55  and  _56
REMARK   23  A    between atoms: _56  and  _57
REMARK   24  A    between atoms: _57  and  _58
REMARK   25  A    between atoms: _58  and  _59
REMARK   26  A    between atoms: _63  and  _65
REMARK   27  A    between atoms: _65  and  _66
REMARK   28  A    between atoms: _65  and  _68
REMARK   29  A    between atoms: _68  and  _69
REMARK   30  A    between atoms: _79  and  _81
REMARK   31  A    between atoms: _81  and  _82
REMARK   32  A    between atoms: _81  and  _84
REMARK   33  A    between atoms: _84  and  _85
REMARK   34  A    between atoms: _88  and  _90
REMARK   35  A    between atoms: _90  and  _91
REMARK   36  A    between atoms: _90  and  _93
REMARK   37  A    between atoms: _93  and  _94
REMARK   38  A    between atoms: _99  and  _101
REMARK   39  A    between atoms: _101  and  _102
REMARK   40  A    between atoms: _101  and  _104
REMARK   41  A    between atoms: _104  and  _105
REMARK   42  A    between atoms: _107  and  _109
REMARK   43  A    between atoms: _109  and  _110
REMARK   44  A    between atoms: _109  and  _112
REMARK   45  A    between atoms: _112  and  _113
REMARK   46  A    between atoms: _113  and  _114
REMARK   47  A    between atoms: _119  and  _121
REMARK   48  A    between atoms: _121  and  _122
REMARK   49  A    between atoms: _121  and  _124
REMARK   50  A    between atoms: _124  and  _125
REMARK   51  A    between atoms: _125  and  _126
REMARK   52  A    between atoms: _129  and  _131
REMARK   53  A    between atoms: _131  and  _132
REMARK   54  A    between atoms: _134  and  _136
REMARK   55  A    between atoms: _136  and  _137
REMARK   56  A    between atoms: _136  and  _139
REMARK   57  A    between atoms: _139  and  _140
REMARK   58  A    between atoms: _143  and  _145
REMARK   59  A    between atoms: _145  and  _146
REMARK   60  A    between atoms: _145  and  _148
REMARK   61  A    between atoms: _148  and  _149
REMARK   62  A    between atoms: _154  and  _156
REMARK   63  A    between atoms: _156  and  _157
REMARK   64  A    between atoms: _156  and  _159
REMARK   65  A    between atoms: _159  and  _160
REMARK   66  A    between atoms: _163  and  _165
REMARK   67  A    between atoms: _165  and  _166
REMARK   68  A    between atoms: _165  and  _168
REMARK   69  A    between atoms: _168  and  _169
REMARK   70  A    between atoms: _169  and  _170
REMARK   71  A    between atoms: _170  and  _171
REMARK   72  A    between atoms: _171  and  _172
REMARK   73  A    between atoms: _176  and  _178
REMARK   74  A    between atoms: _178  and  _179
REMARK   75  A    between atoms: _178  and  _181
REMARK   76  A    between atoms: _181  and  _182
REMARK   77  A    between atoms: _187  and  _188
REMARK   78  A    between atoms: _191  and  _192
REMARK   79  A    between atoms: _197  and  _199
REMARK   80  A    between atoms: _199  and  _200
REMARK   81  A    between atoms: _199  and  _202
REMARK   82  A    between atoms: _202  and  _203
REMARK   83  A    between atoms: _206  and  _208
REMARK   84  A    between atoms: _208  and  _209
REMARK   85  A    between atoms: _211  and  _213
REMARK   86  A    between atoms: _213  and  _214
REMARK   87  A    between atoms: _213  and  _216
REMARK   88  A    between atoms: _219  and  _221
REMARK   89  A    between atoms: _221  and  _222
REMARK   90  A    between atoms: _221  and  _224
REMARK   91  A    between atoms: _224  and  _225
REMARK   92  A    between atoms: _227  and  _229
REMARK   93  A    between atoms: _229  and  _230
REMARK   94  A    between atoms: _229  and  _232
REMARK   95  A    between atoms: _232  and  _233
REMARK   96  A    between atoms: _233  and  _234
REMARK   97  A    between atoms: _234  and  _235
REMARK   98  A    between atoms: _244  and  _246
REMARK   99  A    between atoms: _246  and  _247
REMARK  100  A    between atoms: _246  and  _249
REMARK  101  A    between atoms: _249  and  _250
REMARK  102  A    between atoms: _255  and  _257
REMARK  103  A    between atoms: _257  and  _258
REMARK  104  A    between atoms: _257  and  _260
REMARK  105  A    between atoms: _260  and  _261
REMARK  106  A    between atoms: _261  and  _262
REMARK  107  A    between atoms: _262  and  _263
REMARK  108  A    between atoms: _272  and  _274
REMARK  109  A    between atoms: _274  and  _275
REMARK  110  A    between atoms: _274  and  _277
REMARK  111  A    between atoms: _277  and  _278
REMARK  112  A    between atoms: _282  and  _283
REMARK  113  A    between atoms: _288  and  _290
REMARK  114  A    between atoms: _290  and  _291
REMARK  115  A    between atoms: _290  and  _293
REMARK  116  A    between atoms: _293  and  _294
REMARK  117  A    between atoms: _294  and  _295
REMARK  118  A    between atoms: _298  and  _300
REMARK  119  A    between atoms: _300  and  _301
REMARK  120  A    between atoms: _300  and  _303
REMARK  121  A    between atoms: _303  and  _304
REMARK  122  A    between atoms: _304  and  _305
REMARK  123  A    between atoms: _308  and  _310
REMARK  124  A    between atoms: _310  and  _311
REMARK  125  A    between atoms: _310  and  _313
REMARK  126  A    between atoms: _313  and  _314
REMARK  127  A    between atoms: _319  and  _321
REMARK  128  A    between atoms: _321  and  _322
REMARK  129  A    between atoms: _321  and  _324
REMARK  130  A    between atoms: _324  and  _325
REMARK  131  A    between atoms: _328  and  _330
REMARK  132  A    between atoms: _330  and  _331
REMARK  133  A    between atoms: _330  and  _333
REMARK  134  A    between atoms: _333  and  _334
REMARK  135  A    between atoms: _344  and  _346
REMARK  136  A    between atoms: _346  and  _347
REMARK  137  A    between atoms: _346  and  _349
REMARK  138  A    between atoms: _349  and  _350
REMARK  139  A    between atoms: _350  and  _351
REMARK  140  A    between atoms: _353  and  _355
REMARK  141  A    between atoms: _355  and  _356
REMARK  142  A    between atoms: _355  and  _358
REMARK  143  A    between atoms: _358  and  _359
REMARK  144  A    between atoms: _359  and  _360
REMARK  145  A    between atoms: _360  and  _361
REMARK  146  A    between atoms: _361  and  _362
REMARK  147  A    between atoms: _366  and  _368
REMARK  148  A    between atoms: _368  and  _369
REMARK  149  A    between atoms: _372  and  _374
REMARK  150  A    between atoms: _374  and  _375
REMARK  151  A    between atoms: _374  and  _377
REMARK  152  A    between atoms: _377  and  _378
REMARK  153  A    between atoms: _378  and  _379
REMARK  154  A    between atoms: _379  and  _380
REMARK  155  A    between atoms: _389  and  _391
REMARK  156  A    between atoms: _391  and  _392
REMARK  157  A    between atoms: _391  and  _394
REMARK  158  A    between atoms: _394  and  _395
REMARK  159  A    between atoms: _398  and  _400
REMARK  160  A    between atoms: _400  and  _401
REMARK  161  A    between atoms: _400  and  _403
REMARK  162  A    between atoms: _403  and  _404
REMARK  163  A    between atoms: _414  and  _416
REMARK  164  A    between atoms: _416  and  _417
REMARK  165  A    between atoms: _416  and  _419
REMARK  166  A    between atoms: _419  and  _420
REMARK  167  A    between atoms: _426  and  _428
REMARK  168  A    between atoms: _428  and  _429
REMARK  169  A    between atoms: _432  and  _434
REMARK  170  A    between atoms: _434  and  _435
REMARK  171  A    between atoms: _434  and  _437
REMARK  172  A    between atoms: _437  and  _438
REMARK  173  A    between atoms: _440  and  _442
REMARK  174  A    between atoms: _442  and  _443
REMARK  175  A    between atoms: _442  and  _445
REMARK  176  A    between atoms: _445  and  _446
REMARK  177  A    between atoms: _449  and  _451
REMARK  178  A    between atoms: _451  and  _452
REMARK  179  A    between atoms: _455  and  _457
REMARK  180  A    between atoms: _457  and  _458
REMARK  181  A    between atoms: _457  and  _460
REMARK  182  A    between atoms: _460  and  _461
REMARK  183  A    between atoms: _464  and  _466
REMARK  184  A    between atoms: _466  and  _467
REMARK  185  A    between atoms: _466  and  _469
REMARK  186  A    between atoms: _469  and  _470
REMARK  187  A    between atoms: _473  and  _475
REMARK  188  A    between atoms: _475  and  _476
REMARK  189  A    between atoms: _475  and  _478
REMARK  190  A    between atoms: _478  and  _479
REMARK  191  A    between atoms: _479  and  _480
REMARK  192  A    between atoms: _480  and  _481
REMARK  193  A    between atoms: _490  and  _492
REMARK  194  A    between atoms: _492  and  _493
REMARK  195  A    between atoms: _492  and  _495
REMARK  196  A    between atoms: _495  and  _496
REMARK  197  A    between atoms: _496  and  _497
REMARK  198  A    between atoms: _502  and  _504
REMARK  199  A    between atoms: _504  and  _505
REMARK  200  A    between atoms: _504  and  _507
REMARK  201  A    between atoms: _507  and  _508
REMARK  202  A    between atoms: _508  and  _509
REMARK  203  A    between atoms: _509  and  _510
REMARK  204  A    between atoms: _520  and  _521
REMARK  205  A    between atoms: _526  and  _528
REMARK  206  A    between atoms: _528  and  _529
REMARK  207  A    between atoms: _528  and  _531
REMARK  208  A    between atoms: _531  and  _532
REMARK  209  A    between atoms: _535  and  _537
REMARK  210  A    between atoms: _537  and  _538
REMARK  211  A    between atoms: _537  and  _540
REMARK  212  A    between atoms: _540  and  _541
REMARK  213  A    between atoms: _547  and  _548
REMARK  214  A    between atoms: _553  and  _555
REMARK  215  A    between atoms: _555  and  _556
REMARK  216  A    between atoms: _555  and  _558
REMARK  217  A    between atoms: _561  and  _563
REMARK  218  A    between atoms: _563  and  _564
REMARK  219  A    between atoms: _563  and  _566
REMARK  220  A    between atoms: _566  and  _567
REMARK  221  A    between atoms: _572  and  _574
REMARK  222  A    between atoms: _574  and  _575
REMARK  223  A    between atoms: _574  and  _577
REMARK  224  A    between atoms: _577  and  _578
REMARK  225  A    between atoms: _583  and  _585
REMARK  226  A    between atoms: _585  and  _586
REMARK  227  A    between atoms: _585  and  _588
REMARK  228  A    between atoms: _588  and  _589
REMARK  229  A    between atoms: _589  and  _590
REMARK  230  A    between atoms: _592  and  _594
REMARK  231  A    between atoms: _594  and  _595
REMARK  232  A    between atoms: _594  and  _597
REMARK  233  A    between atoms: _597  and  _598
REMARK  234  A    between atoms: _603  and  _604
REMARK  235  A    between atoms: _606  and  _608
REMARK  236  A    between atoms: _608  and  _609
REMARK  237  A    between atoms: _608  and  _611
REMARK  238  A    between atoms: _611  and  _612
REMARK  239  A    between atoms: _612  and  _613
REMARK  240  A    between atoms: _618  and  _620
REMARK  241  A    between atoms: _620  and  _621
REMARK  242  A    between atoms: _620  and  _623
REMARK  243  A    between atoms: _623  and  _624
REMARK  244  A    between atoms: _628  and  _629
REMARK  245  A    between atoms: _634  and  _636
REMARK  246  A    between atoms: _636  and  _637
REMARK  247  A    between atoms: _636  and  _639
REMARK  248  A    between atoms: _639  and  _640
REMARK  249  A    between atoms: _646  and  _648
REMARK  250  A    between atoms: _648  and  _649
REMARK  251  A    between atoms: _648  and  _651
REMARK  252  A    between atoms: _651  and  _652
REMARK  253  A    between atoms: _652  and  _653
REMARK  254  A    between atoms: _658  and  _660
REMARK  255  A    between atoms: _660  and  _661
REMARK  256  A    between atoms: _660  and  _663
REMARK  257  A    between atoms: _663  and  _664
REMARK  258  A    between atoms: _667  and  _669
REMARK  259  A    between atoms: _669  and  _670
REMARK  260  A    between atoms: _669  and  _672
REMARK  261  A    between atoms: _672  and  _673
REMARK  262  A    between atoms: _678  and  _679
REMARK  263  A    between atoms: _681  and  _683
REMARK  264  A    between atoms: _683  and  _684
REMARK  265  A    between atoms: _683  and  _686
REMARK  266  A    between atoms: _686  and  _687
REMARK  267  A    between atoms: _692  and  _693
REMARK  268  A    between atoms: _695  and  _697
REMARK  269  A    between atoms: _697  and  _698
REMARK  270  A    between atoms: _697  and  _700
REMARK  271  A    between atoms: _700  and  _701
REMARK  272  A    between atoms: _701  and  _702
REMARK  273  A    between atoms: _705  and  _707
REMARK  274  A    between atoms: _707  and  _708
REMARK  275  A    between atoms: _707  and  _710
REMARK  276  A    between atoms: _710  and  _711
REMARK  277  A    between atoms: _711  and  _712
REMARK  278  A    between atoms: _712  and  _713
REMARK  279  A    between atoms: _722  and  _724
REMARK  280  A    between atoms: _724  and  _725
REMARK  281  A    between atoms: _724  and  _727
REMARK  282  A    between atoms: _727  and  _728
REMARK  283  A    between atoms: _738  and  _740
REMARK  284  A    between atoms: _740  and  _741
REMARK  285  A    between atoms: _740  and  _743
REMARK  286  A    between atoms: _743  and  _744
REMARK  287  A    between atoms: _747  and  _749
REMARK  288  A    between atoms: _749  and  _750
REMARK  289  A    between atoms: _753  and  _755
REMARK  290  A    between atoms: _755  and  _756
REMARK  291  A    between atoms: _755  and  _758
REMARK  292  A    between atoms: _758  and  _759
REMARK  293  A    between atoms: _762  and  _764
REMARK  294  A    between atoms: _764  and  _765
REMARK  295  A    between atoms: _764  and  _767
REMARK  296  A    between atoms: _767  and  _768
REMARK  297  A    between atoms: _768  and  _769
REMARK  298  A    between atoms: _769  and  _770
REMARK  299  A    between atoms: _770  and  _771
REMARK  300  A    between atoms: _775  and  _777
REMARK  301  A    between atoms: _777  and  _778
REMARK  302  A    between atoms: _777  and  _780
REMARK  303  A    between atoms: _780  and  _781
REMARK                            x       y       z     vdW  Elec       q    Type
REMARK                         _______ _______ _______ _____ _____    ______ ____
ROOT
ATOM      1  O   HOH     1     -12.038 -15.809  -2.754  0.00  0.00    +0.000 OA
ENDROOT
TORSDOF 0
REMARK  Name = ../refined-set-2016/1y3p/1y3p_pocket.pdb
REMARK  303 active torsions:
REMARK  status: ('A' for Active; 'I' for Inactive)
REMARK    1  A    between atoms: _1  and  _3
REMARK    2  A    between atoms: _3  and  _4
REMARK    3  A    between atoms: _3  and  _6
REMARK    4  A    between atoms: _6  and  _7
REMARK    5  A    between atoms: _12  and  _14
REMARK    6  A    between atoms: _14  and  _15
REMARK    7  A    between atoms: _14  and  _17
REMARK    8  A    between atoms: _17  and  _18
REMARK    9  A    between atoms: _24  and  _26
REMARK   10  A    between atoms: _26  and  _27
REMARK   11  A    between atoms: _26  and  _29
REMARK   12  A    between atoms: _29  and  _30
REMARK   13  A    between atoms: _30  and  _31
REMARK   14  A    between atoms: _31  and  _32
REMARK   15  A    between atoms: _41  and  _43
REMARK   16  A    between atoms: _43  and  _44
REMARK   17  A    between atoms: _43  and  _46
REMARK   18  A    between atoms: _46  and  _47
REMARK   19  A    between atoms: _50  and  _52
REMARK   20  A    between atoms: _52  and  _53
REMARK   21  A    between atoms: _52  and  _55
REMARK   22  A    between atoms: _55  and  _56
REMARK   23  A    between atoms: _56  and  _57
REMARK   24  A    between atoms: _57  and  _58
REMARK   25  A    between atoms: _58  and  _59
REMARK   26  A    between atoms: _63  and  _65
REMARK   27  A    between atoms: _65  and  _66
REMARK   28  A    between atoms: _65  and  _68
REMARK   29  A    between atoms: _68  and  _69
REMARK   30  A    between atoms: _79  and  _81
REMARK   31  A    between atoms: _81  and  _82
REMARK   32  A    between atoms: _81  and  _84
REMARK   33  A    between atoms: _84  and  _85
REMARK   34  A    between atoms: _88  and  _90
REMARK   35  A    between atoms: _90  and  _91
REMARK   36  A    between atoms: _90  and  _93
REMARK   37  A    between atoms: _93  and  _94
REMARK   38  A    between atoms: _99  and  _101
REMARK   39  A    between atoms: _101  and  _102
REMARK   40  A    between atoms: _101  and  _104
REMARK   41  A    between atoms: _104  and  _105
REMARK   42  A    between atoms: _107  and  _109
REMARK   43  A    between atoms: _109  and  _110
REMARK   44  A    between atoms: _109  and  _112
REMARK   45  A    between atoms: _112  and  _113
REMARK   46  A    between atoms: _113  and  _114
REMARK   47  A    between atoms: _119  and  _121
REMARK   48  A    between atoms: _121  and  _122
REMARK   49  A    between atoms: _121  and  _124
REMARK   50  A    between atoms: _124  and  _125
REMARK   51  A    between atoms: _125  and  _126
REMARK   52  A    between atoms: _129  and  _131
REMARK   53  A    between atoms: _131  and  _132
REMARK   54  A    between atoms: _134  and  _136
REMARK   55  A    between atoms: _136  and  _137
REMARK   56  A    between atoms: _136  and  _139
REMARK   57  A    between atoms: _139  and  _140
REMARK   58  A    between atoms: _143  and  _145
REMARK   59  A    between atoms: _145  and  _146
REMARK   60  A    between atoms: _145  and  _148
REMARK   61  A    between atoms: _148  and  _149
REMARK   62  A    between atoms: _154  and  _156
REMARK   63  A    between atoms: _156  and  _157
REMARK   64  A    between atoms: _156  and  _159
REMARK   65  A    between atoms: _159  and  _160
REMARK   66  A    between atoms: _163  and  _165
REMARK   67  A    between atoms: _165  and  _166
REMARK   68  A    between atoms: _165  and  _168
REMARK   69  A    between atoms: _168  and  _169
REMARK   70  A    between atoms: _169  and  _170
REMARK   71  A    between atoms: _170  and  _171
REMARK   72  A    between atoms: _171  and  _172
REMARK   73  A    between atoms: _176  and  _178
REMARK   74  A    between atoms: _178  and  _179
REMARK   75  A    between atoms: _178  and  _181
REMARK   76  A    between atoms: _181  and  _182
REMARK   77  A    between atoms: _187  and  _188
REMARK   78  A    between atoms: _191  and  _192
REMARK   79  A    between atoms: _197  and  _199
REMARK   80  A    between atoms: _199  and  _200
REMARK   81  A    between atoms: _199  and  _202
REMARK   82  A    between atoms: _202  and  _203
REMARK   83  A    between atoms: _206  and  _208
REMARK   84  A    between atoms: _208  and  _209
REMARK   85  A    between atoms: _211  and  _213
REMARK   86  A    between atoms: _213  and  _214
REMARK   87  A    between atoms: _213  and  _216
REMARK   88  A    between atoms: _219  and  _221
REMARK   89  A    between atoms: _221  and  _222
REMARK   90  A    between atoms: _221  and  _224
REMARK   91  A    between atoms: _224  and  _225
REMARK   92  A    between atoms: _227  and  _229
REMARK   93  A    between atoms: _229  and  _230
REMARK   94  A    between atoms: _229  and  _232
REMARK   95  A    between atoms: _232  and  _233
REMARK   96  A    between atoms: _233  and  _234
REMARK   97  A    between atoms: _234  and  _235
REMARK   98  A    between atoms: _244  and  _246
REMARK   99  A    between atoms: _246  and  _247
REMARK  100  A    between atoms: _246  and  _249
REMARK  101  A    between atoms: _249  and  _250
REMARK  102  A    between atoms: _255  and  _257
REMARK  103  A    between atoms: _257  and  _258
REMARK  104  A    between atoms: _257  and  _260
REMARK  105  A    between atoms: _260  and  _261
REMARK  106  A    between atoms: _261  and  _262
REMARK  107  A    between atoms: _262  and  _263
REMARK  108  A    between atoms: _272  and  _274
REMARK  109  A    between atoms: _274  and  _275
REMARK  110  A    between atoms: _274  and  _277
REMARK  111  A    between atoms: _277  and  _278
REMARK  112  A    between atoms: _282  and  _283
REMARK  113  A    between atoms: _288  and  _290
REMARK  114  A    between atoms: _290  and  _291
REMARK  115  A    between atoms: _290  and  _293
REMARK  116  A    between atoms: _293  and  _294
REMARK  117  A    between atoms: _294  and  _295
REMARK  118  A    between atoms: _298  and  _300
REMARK  119  A    between atoms: _300  and  _301
REMARK  120  A    between atoms: _300  and  _303
REMARK  121  A    between atoms: _303  and  _304
REMARK  122  A    between atoms: _304  and  _305
REMARK  123  A    between atoms: _308  and  _310
REMARK  124  A    between atoms: _310  and  _311
REMARK  125  A    between atoms: _310  and  _313
REMARK  126  A    between atoms: _313  and  _314
REMARK  127  A    between atoms: _319  and  _321
REMARK  128  A    between atoms: _321  and  _322
REMARK  129  A    between atoms: _321  and  _324
REMARK  130  A    between atoms: _324  and  _325
REMARK  131  A    between atoms: _328  and  _330
REMARK  132  A    between atoms: _330  and  _331
REMARK  133  A    between atoms: _330  and  _333
REMARK  134  A    between atoms: _333  and  _334
REMARK  135  A    between atoms: _344  and  _346
REMARK  136  A    between atoms: _346  and  _347
REMARK  137  A    between atoms: _346  and  _349
REMARK  138  A    between atoms: _349  and  _350
REMARK  139  A    between atoms: _350  and  _351
REMARK  140  A    between atoms: _353  and  _355
REMARK  141  A    between atoms: _355  and  _356
REMARK  142  A    between atoms: _355  and  _358
REMARK  143  A    between atoms: _358  and  _359
REMARK  144  A    between atoms: _359  and  _360
REMARK  145  A    between atoms: _360  and  _361
REMARK  146  A    between atoms: _361  and  _362
REMARK  147  A    between atoms: _366  and  _368
REMARK  148  A    between atoms: _368  and  _369
REMARK  149  A    between atoms: _372  and  _374
REMARK  150  A    between atoms: _374  and  _375
REMARK  151  A    between atoms: _374  and  _377
REMARK  152  A    between atoms: _377  and  _378
REMARK  153  A    between atoms: _378  and  _379
REMARK  154  A    between atoms: _379  and  _380
REMARK  155  A    between atoms: _389  and  _391
REMARK  156  A    between atoms: _391  and  _392
REMARK  157  A    between atoms: _391  and  _394
REMARK  158  A    between atoms: _394  and  _395
REMARK  159  A    between atoms: _398  and  _400
REMARK  160  A    between atoms: _400  and  _401
REMARK  161  A    between atoms: _400  and  _403
REMARK  162  A    between atoms: _403  and  _404
REMARK  163  A    between atoms: _414  and  _416
REMARK  164  A    between atoms: _416  and  _417
REMARK  165  A    between atoms: _416  and  _419
REMARK  166  A    between atoms: _419  and  _420
REMARK  167  A    between atoms: _426  and  _428
REMARK  168  A    between atoms: _428  and  _429
REMARK  169  A    between atoms: _432  and  _434
REMARK  170  A    between atoms: _434  and  _435
REMARK  171  A    between atoms: _434  and  _437
REMARK  172  A    between atoms: _437  and  _438
REMARK  173  A    between atoms: _440  and  _442
REMARK  174  A    between atoms: _442  and  _443
REMARK  175  A    between atoms: _442  and  _445
REMARK  176  A    between atoms: _445  and  _446
REMARK  177  A    between atoms: _449  and  _451
REMARK  178  A    between atoms: _451  and  _452
REMARK  179  A    between atoms: _455  and  _457
REMARK  180  A    between atoms: _457  and  _458
REMARK  181  A    between atoms: _457  and  _460
REMARK  182  A    between atoms: _460  and  _461
REMARK  183  A    between atoms: _464  and  _466
REMARK  184  A    between atoms: _466  and  _467
REMARK  185  A    between atoms: _466  and  _469
REMARK  186  A    between atoms: _469  and  _470
REMARK  187  A    between atoms: _473  and  _475
REMARK  188  A    between atoms: _475  and  _476
REMARK  189  A    between atoms: _475  and  _478
REMARK  190  A    between atoms: _478  and  _479
REMARK  191  A    between atoms: _479  and  _480
REMARK  192  A    between atoms: _480  and  _481
REMARK  193  A    between atoms: _490  and  _492
REMARK  194  A    between atoms: _492  and  _493
REMARK  195  A    between atoms: _492  and  _495
REMARK  196  A    between atoms: _495  and  _496
REMARK  197  A    between atoms: _496  and  _497
REMARK  198  A    between atoms: _502  and  _504
REMARK  199  A    between atoms: _504  and  _505
REMARK  200  A    between atoms: _504  and  _507
REMARK  201  A    between atoms: _507  and  _508
REMARK  202  A    between atoms: _508  and  _509
REMARK  203  A    between atoms: _509  and  _510
REMARK  204  A    between atoms: _520  and  _521
REMARK  205  A    between atoms: _526  and  _528
REMARK  206  A    between atoms: _528  and  _529
REMARK  207  A    between atoms: _528  and  _531
REMARK  208  A    between atoms: _531  and  _532
REMARK  209  A    between atoms: _535  and  _537
REMARK  210  A    between atoms: _537  and  _538
REMARK  211  A    between atoms: _537  and  _540
REMARK  212  A    between atoms: _540  and  _541
REMARK  213  A    between atoms: _547  and  _548
REMARK  214  A    between atoms: _553  and  _555
REMARK  215  A    between atoms: _555  and  _556
REMARK  216  A    between atoms: _555  and  _558
REMARK  217  A    between atoms: _561  and  _563
REMARK  218  A    between atoms: _563  and  _564
REMARK  219  A    between atoms: _563  and  _566
REMARK  220  A    between atoms: _566  and  _567
REMARK  221  A    between atoms: _572  and  _574
REMARK  222  A    between atoms: _574  and  _575
REMARK  223  A    between atoms: _574  and  _577
REMARK  224  A    between atoms: _577  and  _578
REMARK  225  A    between atoms: _583  and  _585
REMARK  226  A    between atoms: _585  and  _586
REMARK  227  A    between atoms: _585  and  _588
REMARK  228  A    between atoms: _588  and  _589
REMARK  229  A    between atoms: _589  and  _590
REMARK  230  A    between atoms: _592  and  _594
REMARK  231  A    between atoms: _594  and  _595
REMARK  232  A    between atoms: _594  and  _597
REMARK  233  A    between atoms: _597  and  _598
REMARK  234  A    between atoms: _603  and  _604
REMARK  235  A    between atoms: _606  and  _608
REMARK  236  A    between atoms: _608  and  _609
REMARK  237  A    between atoms: _608  and  _611
REMARK  238  A    between atoms: _611  and  _612
REMARK  239  A    between atoms: _612  and  _613
REMARK  240  A    between atoms: _618  and  _620
REMARK  241  A    between atoms: _620  and  _621
REMARK  242  A    between atoms: _620  and  _623
REMARK  243  A    between atoms: _623  and  _624
REMARK  244  A    between atoms: _628  and  _629
REMARK  245  A    between atoms: _634  and  _636
REMARK  246  A    between atoms: _636  and  _637
REMARK  247  A    between atoms: _636  and  _639
REMARK  248  A    between atoms: _639  and  _640
REMARK  249  A    between atoms: _646  and  _648
REMARK  250  A    between atoms: _648  and  _649
REMARK  251  A    between atoms: _648  and  _651
REMARK  252  A    between atoms: _651  and  _652
REMARK  253  A    between atoms: _652  and  _653
REMARK  254  A    between atoms: _658  and  _660
REMARK  255  A    between atoms: _660  and  _661
REMARK  256  A    between atoms: _660  and  _663
REMARK  257  A    between atoms: _663  and  _664
REMARK  258  A    between atoms: _667  and  _669
REMARK  259  A    between atoms: _669  and  _670
REMARK  260  A    between atoms: _669  and  _672
REMARK  261  A    between atoms: _672  and  _673
REMARK  262  A    between atoms: _678  and  _679
REMARK  263  A    between atoms: _681  and  _683
REMARK  264  A    between atoms: _683  and  _684
REMARK  265  A    between atoms: _683  and  _686
REMARK  266  A    between atoms: _686  and  _687
REMARK  267  A    between atoms: _692  and  _693
REMARK  268  A    between atoms: _695  and  _697
REMARK  269  A    between atoms: _697  and  _698
REMARK  270  A    between atoms: _697  and  _700
REMARK  271  A    between atoms: _700  and  _701
REMARK  272  A    between atoms: _701  and  _702
REMARK  273  A    between atoms: _705  and  _707
REMARK  274  A    between atoms: _707  and  _708
REMARK  275  A    between atoms: _707  and  _710
REMARK  276  A    between atoms: _710  and  _711
REMARK  277  A    between atoms: _711  and  _712
REMARK  278  A    between atoms: _712  and  _713
REMARK  279  A    between atoms: _722  and  _724
REMARK  280  A    between atoms: _724  and  _725
REMARK  281  A    between atoms: _724  and  _727
REMARK  282  A    between atoms: _727  and  _728
REMARK  283  A    between atoms: _738  and  _740
REMARK  284  A    between atoms: _740  and  _741
REMARK  285  A    between atoms: _740  and  _743
REMARK  286  A    between atoms: _743  and  _744
REMARK  287  A    between atoms: _747  and  _749
REMARK  288  A    between atoms: _749  and  _750
REMARK  289  A    between atoms: _753  and  _755
REMARK  290  A    between atoms: _755  and  _756
REMARK  291  A    between atoms: _755  and  _758
REMARK  292  A    between atoms: _758  and  _759
REMARK  293  A    between atoms: _762  and  _764
REMARK  294  A    between atoms: _764  and  _765
REMARK  295  A    between atoms: _764  and  _767
REMARK  296  A    between atoms: _767  and  _768
REMARK  297  A    between atoms: _768  and  _769
REMARK  298  A    between atoms: _769  and  _770
REMARK  299  A    between atoms: _770  and  _771
REMARK  300  A    between atoms: _775  and  _777
REMARK  301  A    between atoms: _777  and  _778
REMARK  302  A    between atoms: _777  and  _780
REMARK  303  A    between atoms: _780  and  _781
REMARK                            x       y       z     vdW  Elec       q    Type
REMARK                         _______ _______ _______ _____ _____    ______ ____
ROOT
ATOM      1  O   HOH     1      -9.613 -17.402  -2.733  0.00  0.00    +0.000 OA
ENDROOT
TORSDOF 0
REMARK  Name = ../refined-set-2016/1y3p/1y3p_pocket.pdb
REMARK  303 active torsions:
REMARK  status: ('A' for Active; 'I' for Inactive)
REMARK    1  A    between atoms: _1  and  _3
REMARK    2  A    between atoms: _3  and  _4
REMARK    3  A    between atoms: _3  and  _6
REMARK    4  A    between atoms: _6  and  _7
REMARK    5  A    between atoms: _12  and  _14
REMARK    6  A    between atoms: _14  and  _15
REMARK    7  A    between atoms: _14  and  _17
REMARK    8  A    between atoms: _17  and  _18
REMARK    9  A    between atoms: _24  and  _26
REMARK   10  A    between atoms: _26  and  _27
REMARK   11  A    between atoms: _26  and  _29
REMARK   12  A    between atoms: _29  and  _30
REMARK   13  A    between atoms: _30  and  _31
REMARK   14  A    between atoms: _31  and  _32
REMARK   15  A    between atoms: _41  and  _43
REMARK   16  A    between atoms: _43  and  _44
REMARK   17  A    between atoms: _43  and  _46
REMARK   18  A    between atoms: _46  and  _47
REMARK   19  A    between atoms: _50  and  _52
REMARK   20  A    between atoms: _52  and  _53
REMARK   21  A    between atoms: _52  and  _55
REMARK   22  A    between atoms: _55  and  _56
REMARK   23  A    between atoms: _56  and  _57
REMARK   24  A    between atoms: _57  and  _58
REMARK   25  A    between atoms: _58  and  _59
REMARK   26  A    between atoms: _63  and  _65
REMARK   27  A    between atoms: _65  and  _66
REMARK   28  A    between atoms: _65  and  _68
REMARK   29  A    between atoms: _68  and  _69
REMARK   30  A    between atoms: _79  and  _81
REMARK   31  A    between atoms: _81  and  _82
REMARK   32  A    between atoms: _81  and  _84
REMARK   33  A    between atoms: _84  and  _85
REMARK   34  A    between atoms: _88  and  _90
REMARK   35  A    between atoms: _90  and  _91
REMARK   36  A    between atoms: _90  and  _93
REMARK   37  A    between atoms: _93  and  _94
REMARK   38  A    between atoms: _99  and  _101
REMARK   39  A    between atoms: _101  and  _102
REMARK   40  A    between atoms: _101  and  _104
REMARK   41  A    between atoms: _104  and  _105
REMARK   42  A    between atoms: _107  and  _109
REMARK   43  A    between atoms: _109  and  _110
REMARK   44  A    between atoms: _109  and  _112
REMARK   45  A    between atoms: _112  and  _113
REMARK   46  A    between atoms: _113  and  _114
REMARK   47  A    between atoms: _119  and  _121
REMARK   48  A    between atoms: _121  and  _122
REMARK   49  A    between atoms: _121  and  _124
REMARK   50  A    between atoms: _124  and  _125
REMARK   51  A    between atoms: _125  and  _126
REMARK   52  A    between atoms: _129  and  _131
REMARK   53  A    between atoms: _131  and  _132
REMARK   54  A    between atoms: _134  and  _136
REMARK   55  A    between atoms: _136  and  _137
REMARK   56  A    between atoms: _136  and  _139
REMARK   57  A    between atoms: _139  and  _140
REMARK   58  A    between atoms: _143  and  _145
REMARK   59  A    between atoms: _145  and  _146
REMARK   60  A    between atoms: _145  and  _148
REMARK   61  A    between atoms: _148  and  _149
REMARK   62  A    between atoms: _154  and  _156
REMARK   63  A    between atoms: _156  and  _157
REMARK   64  A    between atoms: _156  and  _159
REMARK   65  A    between atoms: _159  and  _160
REMARK   66  A    between atoms: _163  and  _165
REMARK   67  A    between atoms: _165  and  _166
REMARK   68  A    between atoms: _165  and  _168
REMARK   69  A    between atoms: _168  and  _169
REMARK   70  A    between atoms: _169  and  _170
REMARK   71  A    between atoms: _170  and  _171
REMARK   72  A    between atoms: _171  and  _172
REMARK   73  A    between atoms: _176  and  _178
REMARK   74  A    between atoms: _178  and  _179
REMARK   75  A    between atoms: _178  and  _181
REMARK   76  A    between atoms: _181  and  _182
REMARK   77  A    between atoms: _187  and  _188
REMARK   78  A    between atoms: _191  and  _192
REMARK   79  A    between atoms: _197  and  _199
REMARK   80  A    between atoms: _199  and  _200
REMARK   81  A    between atoms: _199  and  _202
REMARK   82  A    between atoms: _202  and  _203
REMARK   83  A    between atoms: _206  and  _208
REMARK   84  A    between atoms: _208  and  _209
REMARK   85  A    between atoms: _211  and  _213
REMARK   86  A    between atoms: _213  and  _214
REMARK   87  A    between atoms: _213  and  _216
REMARK   88  A    between atoms: _219  and  _221
REMARK   89  A    between atoms: _221  and  _222
REMARK   90  A    between atoms: _221  and  _224
REMARK   91  A    between atoms: _224  and  _225
REMARK   92  A    between atoms: _227  and  _229
REMARK   93  A    between atoms: _229  and  _230
REMARK   94  A    between atoms: _229  and  _232
REMARK   95  A    between atoms: _232  and  _233
REMARK   96  A    between atoms: _233  and  _234
REMARK   97  A    between atoms: _234  and  _235
REMARK   98  A    between atoms: _244  and  _246
REMARK   99  A    between atoms: _246  and  _247
REMARK  100  A    between atoms: _246  and  _249
REMARK  101  A    between atoms: _249  and  _250
REMARK  102  A    between atoms: _255  and  _257
REMARK  103  A    between atoms: _257  and  _258
REMARK  104  A    between atoms: _257  and  _260
REMARK  105  A    between atoms: _260  and  _261
REMARK  106  A    between atoms: _261  and  _262
REMARK  107  A    between atoms: _262  and  _263
REMARK  108  A    between atoms: _272  and  _274
REMARK  109  A    between atoms: _274  and  _275
REMARK  110  A    between atoms: _274  and  _277
REMARK  111  A    between atoms: _277  and  _278
REMARK  112  A    between atoms: _282  and  _283
REMARK  113  A    between atoms: _288  and  _290
REMARK  114  A    between atoms: _290  and  _291
REMARK  115  A    between atoms: _290  and  _293
REMARK  116  A    between atoms: _293  and  _294
REMARK  117  A    between atoms: _294  and  _295
REMARK  118  A    between atoms: _298  and  _300
REMARK  119  A    between atoms: _300  and  _301
REMARK  120  A    between atoms: _300  and  _303
REMARK  121  A    between atoms: _303  and  _304
REMARK  122  A    between atoms: _304  and  _305
REMARK  123  A    between atoms: _308  and  _310
REMARK  124  A    between atoms: _310  and  _311
REMARK  125  A    between atoms: _310  and  _313
REMARK  126  A    between atoms: _313  and  _314
REMARK  127  A    between atoms: _319  and  _321
REMARK  128  A    between atoms: _321  and  _322
REMARK  129  A    between atoms: _321  and  _324
REMARK  130  A    between atoms: _324  and  _325
REMARK  131  A    between atoms: _328  and  _330
REMARK  132  A    between atoms: _330  and  _331
REMARK  133  A    between atoms: _330  and  _333
REMARK  134  A    between atoms: _333  and  _334
REMARK  135  A    between atoms: _344  and  _346
REMARK  136  A    between atoms: _346  and  _347
REMARK  137  A    between atoms: _346  and  _349
REMARK  138  A    between atoms: _349  and  _350
REMARK  139  A    between atoms: _350  and  _351
REMARK  140  A    between atoms: _353  and  _355
REMARK  141  A    between atoms: _355  and  _356
REMARK  142  A    between atoms: _355  and  _358
REMARK  143  A    between atoms: _358  and  _359
REMARK  144  A    between atoms: _359  and  _360
REMARK  145  A    between atoms: _360  and  _361
REMARK  146  A    between atoms: _361  and  _362
REMARK  147  A    between atoms: _366  and  _368
REMARK  148  A    between atoms: _368  and  _369
REMARK  149  A    between atoms: _372  and  _374
REMARK  150  A    between atoms: _374  and  _375
REMARK  151  A    between atoms: _374  and  _377
REMARK  152  A    between atoms: _377  and  _378
REMARK  153  A    between atoms: _378  and  _379
REMARK  154  A    between atoms: _379  and  _380
REMARK  155  A    between atoms: _389  and  _391
REMARK  156  A    between atoms: _391  and  _392
REMARK  157  A    between atoms: _391  and  _394
REMARK  158  A    between atoms: _394  and  _395
REMARK  159  A    between atoms: _398  and  _400
REMARK  160  A    between atoms: _400  and  _401
REMARK  161  A    between atoms: _400  and  _403
REMARK  162  A    between atoms: _403  and  _404
REMARK  163  A    between atoms: _414  and  _416
REMARK  164  A    between atoms: _416  and  _417
REMARK  165  A    between atoms: _416  and  _419
REMARK  166  A    between atoms: _419  and  _420
REMARK  167  A    between atoms: _426  and  _428
REMARK  168  A    between atoms: _428  and  _429
REMARK  169  A    between atoms: _432  and  _434
REMARK  170  A    between atoms: _434  and  _435
REMARK  171  A    between atoms: _434  and  _437
REMARK  172  A    between atoms: _437  and  _438
REMARK  173  A    between atoms: _440  and  _442
REMARK  174  A    between atoms: _442  and  _443
REMARK  175  A    between atoms: _442  and  _445
REMARK  176  A    between atoms: _445  and  _446
REMARK  177  A    between atoms: _449  and  _451
REMARK  178  A    between atoms: _451  and  _452
REMARK  179  A    between atoms: _455  and  _457
REMARK  180  A    between atoms: _457  and  _458
REMARK  181  A    between atoms: _457  and  _460
REMARK  182  A    between atoms: _460  and  _461
REMARK  183  A    between atoms: _464  and  _466
REMARK  184  A    between atoms: _466  and  _467
REMARK  185  A    between atoms: _466  and  _469
REMARK  186  A    between atoms: _469  and  _470
REMARK  187  A    between atoms: _473  and  _475
REMARK  188  A    between atoms: _475  and  _476
REMARK  189  A    between atoms: _475  and  _478
REMARK  190  A    between atoms: _478  and  _479
REMARK  191  A    between atoms: _479  and  _480
REMARK  192  A    between atoms: _480  and  _481
REMARK  193  A    between atoms: _490  and  _492
REMARK  194  A    between atoms: _492  and  _493
REMARK  195  A    between atoms: _492  and  _495
REMARK  196  A    between atoms: _495  and  _496
REMARK  197  A    between atoms: _496  and  _497
REMARK  198  A    between atoms: _502  and  _504
REMARK  199  A    between atoms: _504  and  _505
REMARK  200  A    between atoms: _504  and  _507
REMARK  201  A    between atoms: _507  and  _508
REMARK  202  A    between atoms: _508  and  _509
REMARK  203  A    between atoms: _509  and  _510
REMARK  204  A    between atoms: _520  and  _521
REMARK  205  A    between atoms: _526  and  _528
REMARK  206  A    between atoms: _528  and  _529
REMARK  207  A    between atoms: _528  and  _531
REMARK  208  A    between atoms: _531  and  _532
REMARK  209  A    between atoms: _535  and  _537
REMARK  210  A    between atoms: _537  and  _538
REMARK  211  A    between atoms: _537  and  _540
REMARK  212  A    between atoms: _540  and  _541
REMARK  213  A    between atoms: _547  and  _548
REMARK  214  A    between atoms: _553  and  _555
REMARK  215  A    between atoms: _555  and  _556
REMARK  216  A    between atoms: _555  and  _558
REMARK  217  A    between atoms: _561  and  _563
REMARK  218  A    between atoms: _563  and  _564
REMARK  219  A    between atoms: _563  and  _566
REMARK  220  A    between atoms: _566  and  _567
REMARK  221  A    between atoms: _572  and  _574
REMARK  222  A    between atoms: _574  and  _575
REMARK  223  A    between atoms: _574  and  _577
REMARK  224  A    between atoms: _577  and  _578
REMARK  225  A    between atoms: _583  and  _585
REMARK  226  A    between atoms: _585  and  _586
REMARK  227  A    between atoms: _585  and  _588
REMARK  228  A    between atoms: _588  and  _589
REMARK  229  A    between atoms: _589  and  _590
REMARK  230  A    between atoms: _592  and  _594
REMARK  231  A    between atoms: _594  and  _595
REMARK  232  A    between atoms: _594  and  _597
REMARK  233  A    between atoms: _597  and  _598
REMARK  234  A    between atoms: _603  and  _604
REMARK  235  A    between atoms: _606  and  _608
REMARK  236  A    between atoms: _608  and  _609
REMARK  237  A    between atoms: _608  and  _611
REMARK  238  A    between atoms: _611  and  _612
REMARK  239  A    between atoms: _612  and  _613
REMARK  240  A    between atoms: _618  and  _620
REMARK  241  A    between atoms: _620  and  _621
REMARK  242  A    between atoms: _620  and  _623
REMARK  243  A    between atoms: _623  and  _624
REMARK  244  A    between atoms: _628  and  _629
REMARK  245  A    between atoms: _634  and  _636
REMARK  246  A    between atoms: _636  and  _637
REMARK  247  A    between atoms: _636  and  _639
REMARK  248  A    between atoms: _639  and  _640
REMARK  249  A    between atoms: _646  and  _648
REMARK  250  A    between atoms: _648  and  _649
REMARK  251  A    between atoms: _648  and  _651
REMARK  252  A    between atoms: _651  and  _652
REMARK  253  A    between atoms: _652  and  _653
REMARK  254  A    between atoms: _658  and  _660
REMARK  255  A    between atoms: _660  and  _661
REMARK  256  A    between atoms: _660  and  _663
REMARK  257  A    between atoms: _663  and  _664
REMARK  258  A    between atoms: _667  and  _669
REMARK  259  A    between atoms: _669  and  _670
REMARK  260  A    between atoms: _669  and  _672
REMARK  261  A    between atoms: _672  and  _673
REMARK  262  A    between atoms: _678  and  _679
REMARK  263  A    between atoms: _681  and  _683
REMARK  264  A    between atoms: _683  and  _684
REMARK  265  A    between atoms: _683  and  _686
REMARK  266  A    between atoms: _686  and  _687
REMARK  267  A    between atoms: _692  and  _693
REMARK  268  A    between atoms: _695  and  _697
REMARK  269  A    between atoms: _697  and  _698
REMARK  270  A    between atoms: _697  and  _700
REMARK  271  A    between atoms: _700  and  _701
REMARK  272  A    between atoms: _701  and  _702
REMARK  273  A    between atoms: _705  and  _707
REMARK  274  A    between atoms: _707  and  _708
REMARK  275  A    between atoms: _707  and  _710
REMARK  276  A    between atoms: _710  and  _711
REMARK  277  A    between atoms: _711  and  _712
REMARK  278  A    between atoms: _712  and  _713
REMARK  279  A    between atoms: _722  and  _724
REMARK  280  A    between atoms: _724  and  _725
REMARK  281  A    between atoms: _724  and  _727
REMARK  282  A    between atoms: _727  and  _728
REMARK  283  A    between atoms: _738  and  _740
REMARK  284  A    between atoms: _740  and  _741
REMARK  285  A    between atoms: _740  and  _743
REMARK  286  A    between atoms: _743  and  _744
REMARK  287  A    between atoms: _747  and  _749
REMARK  288  A    between atoms: _749  and  _750
REMARK  289  A    between atoms: _753  and  _755
REMARK  290  A    between atoms: _755  and  _756
REMARK  291  A    between atoms: _755  and  _758
REMARK  292  A    between atoms: _758  and  _759
REMARK  293  A    between atoms: _762  and  _764
REMARK  294  A    between atoms: _764  and  _765
REMARK  295  A    between atoms: _764  and  _767
REMARK  296  A    between atoms: _767  and  _768
REMARK  297  A    between atoms: _768  and  _769
REMARK  298  A    between atoms: _769  and  _770
REMARK  299  A    between atoms: _770  and  _771
REMARK  300  A    between atoms: _775  and  _777
REMARK  301  A    between atoms: _777  and  _778
REMARK  302  A    between atoms: _777  and  _780
REMARK  303  A    between atoms: _780  and  _781
REMARK                            x       y       z     vdW  Elec       q    Type
REMARK                         _______ _______ _______ _____ _____    ______ ____
ROOT
ATOM      1  O   HOH     1      -8.122 -15.295  -0.752  0.00  0.00    +0.000 OA
ENDROOT
TORSDOF 0
REMARK  Name = ../refined-set-2016/1y3p/1y3p_pocket.pdb
REMARK  303 active torsions:
REMARK  status: ('A' for Active; 'I' for Inactive)
REMARK    1  A    between atoms: _1  and  _3
REMARK    2  A    between atoms: _3  and  _4
REMARK    3  A    between atoms: _3  and  _6
REMARK    4  A    between atoms: _6  and  _7
REMARK    5  A    between atoms: _12  and  _14
REMARK    6  A    between atoms: _14  and  _15
REMARK    7  A    between atoms: _14  and  _17
REMARK    8  A    between atoms: _17  and  _18
REMARK    9  A    between atoms: _24  and  _26
REMARK   10  A    between atoms: _26  and  _27
REMARK   11  A    between atoms: _26  and  _29
REMARK   12  A    between atoms: _29  and  _30
REMARK   13  A    between atoms: _30  and  _31
REMARK   14  A    between atoms: _31  and  _32
REMARK   15  A    between atoms: _41  and  _43
REMARK   16  A    between atoms: _43  and  _44
REMARK   17  A    between atoms: _43  and  _46
REMARK   18  A    between atoms: _46  and  _47
REMARK   19  A    between atoms: _50  and  _52
REMARK   20  A    between atoms: _52  and  _53
REMARK   21  A    between atoms: _52  and  _55
REMARK   22  A    between atoms: _55  and  _56
REMARK   23  A    between atoms: _56  and  _57
REMARK   24  A    between atoms: _57  and  _58
REMARK   25  A    between atoms: _58  and  _59
REMARK   26  A    between atoms: _63  and  _65
REMARK   27  A    between atoms: _65  and  _66
REMARK   28  A    between atoms: _65  and  _68
REMARK   29  A    between atoms: _68  and  _69
REMARK   30  A    between atoms: _79  and  _81
REMARK   31  A    between atoms: _81  and  _82
REMARK   32  A    between atoms: _81  and  _84
REMARK   33  A    between atoms: _84  and  _85
REMARK   34  A    between atoms: _88  and  _90
REMARK   35  A    between atoms: _90  and  _91
REMARK   36  A    between atoms: _90  and  _93
REMARK   37  A    between atoms: _93  and  _94
REMARK   38  A    between atoms: _99  and  _101
REMARK   39  A    between atoms: _101  and  _102
REMARK   40  A    between atoms: _101  and  _104
REMARK   41  A    between atoms: _104  and  _105
REMARK   42  A    between atoms: _107  and  _109
REMARK   43  A    between atoms: _109  and  _110
REMARK   44  A    between atoms: _109  and  _112
REMARK   45  A    between atoms: _112  and  _113
REMARK   46  A    between atoms: _113  and  _114
REMARK   47  A    between atoms: _119  and  _121
REMARK   48  A    between atoms: _121  and  _122
REMARK   49  A    between atoms: _121  and  _124
REMARK   50  A    between atoms: _124  and  _125
REMARK   51  A    between atoms: _125  and  _126
REMARK   52  A    between atoms: _129  and  _131
REMARK   53  A    between atoms: _131  and  _132
REMARK   54  A    between atoms: _134  and  _136
REMARK   55  A    between atoms: _136  and  _137
REMARK   56  A    between atoms: _136  and  _139
REMARK   57  A    between atoms: _139  and  _140
REMARK   58  A    between atoms: _143  and  _145
REMARK   59  A    between atoms: _145  and  _146
REMARK   60  A    between atoms: _145  and  _148
REMARK   61  A    between atoms: _148  and  _149
REMARK   62  A    between atoms: _154  and  _156
REMARK   63  A    between atoms: _156  and  _157
REMARK   64  A    between atoms: _156  and  _159
REMARK   65  A    between atoms: _159  and  _160
REMARK   66  A    between atoms: _163  and  _165
REMARK   67  A    between atoms: _165  and  _166
REMARK   68  A    between atoms: _165  and  _168
REMARK   69  A    between atoms: _168  and  _169
REMARK   70  A    between atoms: _169  and  _170
REMARK   71  A    between atoms: _170  and  _171
REMARK   72  A    between atoms: _171  and  _172
REMARK   73  A    between atoms: _176  and  _178
REMARK   74  A    between atoms: _178  and  _179
REMARK   75  A    between atoms: _178  and  _181
REMARK   76  A    between atoms: _181  and  _182
REMARK   77  A    between atoms: _187  and  _188
REMARK   78  A    between atoms: _191  and  _192
REMARK   79  A    between atoms: _197  and  _199
REMARK   80  A    between atoms: _199  and  _200
REMARK   81  A    between atoms: _199  and  _202
REMARK   82  A    between atoms: _202  and  _203
REMARK   83  A    between atoms: _206  and  _208
REMARK   84  A    between atoms: _208  and  _209
REMARK   85  A    between atoms: _211  and  _213
REMARK   86  A    between atoms: _213  and  _214
REMARK   87  A    between atoms: _213  and  _216
REMARK   88  A    between atoms: _219  and  _221
REMARK   89  A    between atoms: _221  and  _222
REMARK   90  A    between atoms: _221  and  _224
REMARK   91  A    between atoms: _224  and  _225
REMARK   92  A    between atoms: _227  and  _229
REMARK   93  A    between atoms: _229  and  _230
REMARK   94  A    between atoms: _229  and  _232
REMARK   95  A    between atoms: _232  and  _233
REMARK   96  A    between atoms: _233  and  _234
REMARK   97  A    between atoms: _234  and  _235
REMARK   98  A    between atoms: _244  and  _246
REMARK   99  A    between atoms: _246  and  _247
REMARK  100  A    between atoms: _246  and  _249
REMARK  101  A    between atoms: _249  and  _250
REMARK  102  A    between atoms: _255  and  _257
REMARK  103  A    between atoms: _257  and  _258
REMARK  104  A    between atoms: _257  and  _260
REMARK  105  A    between atoms: _260  and  _261
REMARK  106  A    between atoms: _261  and  _262
REMARK  107  A    between atoms: _262  and  _263
REMARK  108  A    between atoms: _272  and  _274
REMARK  109  A    between atoms: _274  and  _275
REMARK  110  A    between atoms: _274  and  _277
REMARK  111  A    between atoms: _277  and  _278
REMARK  112  A    between atoms: _282  and  _283
REMARK  113  A    between atoms: _288  and  _290
REMARK  114  A    between atoms: _290  and  _291
REMARK  115  A    between atoms: _290  and  _293
REMARK  116  A    between atoms: _293  and  _294
REMARK  117  A    between atoms: _294  and  _295
REMARK  118  A    between atoms: _298  and  _300
REMARK  119  A    between atoms: _300  and  _301
REMARK  120  A    between atoms: _300  and  _303
REMARK  121  A    between atoms: _303  and  _304
REMARK  122  A    between atoms: _304  and  _305
REMARK  123  A    between atoms: _308  and  _310
REMARK  124  A    between atoms: _310  and  _311
REMARK  125  A    between atoms: _310  and  _313
REMARK  126  A    between atoms: _313  and  _314
REMARK  127  A    between atoms: _319  and  _321
REMARK  128  A    between atoms: _321  and  _322
REMARK  129  A    between atoms: _321  and  _324
REMARK  130  A    between atoms: _324  and  _325
REMARK  131  A    between atoms: _328  and  _330
REMARK  132  A    between atoms: _330  and  _331
REMARK  133  A    between atoms: _330  and  _333
REMARK  134  A    between atoms: _333  and  _334
REMARK  135  A    between atoms: _344  and  _346
REMARK  136  A    between atoms: _346  and  _347
REMARK  137  A    between atoms: _346  and  _349
REMARK  138  A    between atoms: _349  and  _350
REMARK  139  A    between atoms: _350  and  _351
REMARK  140  A    between atoms: _353  and  _355
REMARK  141  A    between atoms: _355  and  _356
REMARK  142  A    between atoms: _355  and  _358
REMARK  143  A    between atoms: _358  and  _359
REMARK  144  A    between atoms: _359  and  _360
REMARK  145  A    between atoms: _360  and  _361
REMARK  146  A    between atoms: _361  and  _362
REMARK  147  A    between atoms: _366  and  _368
REMARK  148  A    between atoms: _368  and  _369
REMARK  149  A    between atoms: _372  and  _374
REMARK  150  A    between atoms: _374  and  _375
REMARK  151  A    between atoms: _374  and  _377
REMARK  152  A    between atoms: _377  and  _378
REMARK  153  A    between atoms: _378  and  _379
REMARK  154  A    between atoms: _379  and  _380
REMARK  155  A    between atoms: _389  and  _391
REMARK  156  A    between atoms: _391  and  _392
REMARK  157  A    between atoms: _391  and  _394
REMARK  158  A    between atoms: _394  and  _395
REMARK  159  A    between atoms: _398  and  _400
REMARK  160  A    between atoms: _400  and  _401
REMARK  161  A    between atoms: _400  and  _403
REMARK  162  A    between atoms: _403  and  _404
REMARK  163  A    between atoms: _414  and  _416
REMARK  164  A    between atoms: _416  and  _417
REMARK  165  A    between atoms: _416  and  _419
REMARK  166  A    between atoms: _419  and  _420
REMARK  167  A    between atoms: _426  and  _428
REMARK  168  A    between atoms: _428  and  _429
REMARK  169  A    between atoms: _432  and  _434
REMARK  170  A    between atoms: _434  and  _435
REMARK  171  A    between atoms: _434  and  _437
REMARK  172  A    between atoms: _437  and  _438
REMARK  173  A    between atoms: _440  and  _442
REMARK  174  A    between atoms: _442  and  _443
REMARK  175  A    between atoms: _442  and  _445
REMARK  176  A    between atoms: _445  and  _446
REMARK  177  A    between atoms: _449  and  _451
REMARK  178  A    between atoms: _451  and  _452
REMARK  179  A    between atoms: _455  and  _457
REMARK  180  A    between atoms: _457  and  _458
REMARK  181  A    between atoms: _457  and  _460
REMARK  182  A    between atoms: _460  and  _461
REMARK  183  A    between atoms: _464  and  _466
REMARK  184  A    between atoms: _466  and  _467
REMARK  185  A    between atoms: _466  and  _469
REMARK  186  A    between atoms: _469  and  _470
REMARK  187  A    between atoms: _473  and  _475
REMARK  188  A    between atoms: _475  and  _476
REMARK  189  A    between atoms: _475  and  _478
REMARK  190  A    between atoms: _478  and  _479
REMARK  191  A    between atoms: _479  and  _480
REMARK  192  A    between atoms: _480  and  _481
REMARK  193  A    between atoms: _490  and  _492
REMARK  194  A    between atoms: _492  and  _493
REMARK  195  A    between atoms: _492  and  _495
REMARK  196  A    between atoms: _495  and  _496
REMARK  197  A    between atoms: _496  and  _497
REMARK  198  A    between atoms: _502  and  _504
REMARK  199  A    between atoms: _504  and  _505
REMARK  200  A    between atoms: _504  and  _507
REMARK  201  A    between atoms: _507  and  _508
REMARK  202  A    between atoms: _508  and  _509
REMARK  203  A    between atoms: _509  and  _510
REMARK  204  A    between atoms: _520  and  _521
REMARK  205  A    between atoms: _526  and  _528
REMARK  206  A    between atoms: _528  and  _529
REMARK  207  A    between atoms: _528  and  _531
REMARK  208  A    between atoms: _531  and  _532
REMARK  209  A    between atoms: _535  and  _537
REMARK  210  A    between atoms: _537  and  _538
REMARK  211  A    between atoms: _537  and  _540
REMARK  212  A    between atoms: _540  and  _541
REMARK  213  A    between atoms: _547  and  _548
REMARK  214  A    between atoms: _553  and  _555
REMARK  215  A    between atoms: _555  and  _556
REMARK  216  A    between atoms: _555  and  _558
REMARK  217  A    between atoms: _561  and  _563
REMARK  218  A    between atoms: _563  and  _564
REMARK  219  A    between atoms: _563  and  _566
REMARK  220  A    between atoms: _566  and  _567
REMARK  221  A    between atoms: _572  and  _574
REMARK  222  A    between atoms: _574  and  _575
REMARK  223  A    between atoms: _574  and  _577
REMARK  224  A    between atoms: _577  and  _578
REMARK  225  A    between atoms: _583  and  _585
REMARK  226  A    between atoms: _585  and  _586
REMARK  227  A    between atoms: _585  and  _588
REMARK  228  A    between atoms: _588  and  _589
REMARK  229  A    between atoms: _589  and  _590
REMARK  230  A    between atoms: _592  and  _594
REMARK  231  A    between atoms: _594  and  _595
REMARK  232  A    between atoms: _594  and  _597
REMARK  233  A    between atoms: _597  and  _598
REMARK  234  A    between atoms: _603  and  _604
REMARK  235  A    between atoms: _606  and  _608
REMARK  236  A    between atoms: _608  and  _609
REMARK  237  A    between atoms: _608  and  _611
REMARK  238  A    between atoms: _611  and  _612
REMARK  239  A    between atoms: _612  and  _613
REMARK  240  A    between atoms: _618  and  _620
REMARK  241  A    between atoms: _620  and  _621
REMARK  242  A    between atoms: _620  and  _623
REMARK  243  A    between atoms: _623  and  _624
REMARK  244  A    between atoms: _628  and  _629
REMARK  245  A    between atoms: _634  and  _636
REMARK  246  A    between atoms: _636  and  _637
REMARK  247  A    between atoms: _636  and  _639
REMARK  248  A    between atoms: _639  and  _640
REMARK  249  A    between atoms: _646  and  _648
REMARK  250  A    between atoms: _648  and  _649
REMARK  251  A    between atoms: _648  and  _651
REMARK  252  A    between atoms: _651  and  _652
REMARK  253  A    between atoms: _652  and  _653
REMARK  254  A    between atoms: _658  and  _660
REMARK  255  A    between atoms: _660  and  _661
REMARK  256  A    between atoms: _660  and  _663
REMARK  257  A    between atoms: _663  and  _664
REMARK  258  A    between atoms: _667  and  _669
REMARK  259  A    between atoms: _669  and  _670
REMARK  260  A    between atoms: _669  and  _672
REMARK  261  A    between atoms: _672  and  _673
REMARK  262  A    between atoms: _678  and  _679
REMARK  263  A    between atoms: _681  and  _683
REMARK  264  A    between atoms: _683  and  _684
REMARK  265  A    between atoms: _683  and  _686
REMARK  266  A    between atoms: _686  and  _687
REMARK  267  A    between atoms: _692  and  _693
REMARK  268  A    between atoms: _695  and  _697
REMARK  269  A    between atoms: _697  and  _698
REMARK  270  A    between atoms: _697  and  _700
REMARK  271  A    between atoms: _700  and  _701
REMARK  272  A    between atoms: _701  and  _702
REMARK  273  A    between atoms: _705  and  _707
REMARK  274  A    between atoms: _707  and  _708
REMARK  275  A    between atoms: _707  and  _710
REMARK  276  A    between atoms: _710  and  _711
REMARK  277  A    between atoms: _711  and  _712
REMARK  278  A    between atoms: _712  and  _713
REMARK  279  A    between atoms: _722  and  _724
REMARK  280  A    between atoms: _724  and  _725
REMARK  281  A    between atoms: _724  and  _727
REMARK  282  A    between atoms: _727  and  _728
REMARK  283  A    between atoms: _738  and  _740
REMARK  284  A    between atoms: _740  and  _741
REMARK  285  A    between atoms: _740  and  _743
REMARK  286  A    between atoms: _743  and  _744
REMARK  287  A    between atoms: _747  and  _749
REMARK  288  A    between atoms: _749  and  _750
REMARK  289  A    between atoms: _753  and  _755
REMARK  290  A    between atoms: _755  and  _756
REMARK  291  A    between atoms: _755  and  _758
REMARK  292  A    between atoms: _758  and  _759
REMARK  293  A    between atoms: _762  and  _764
REMARK  294  A    between atoms: _764  and  _765
REMARK  295  A    between atoms: _764  and  _767
REMARK  296  A    between atoms: _767  and  _768
REMARK  297  A    between atoms: _768  and  _769
REMARK  298  A    between atoms: _769  and  _770
REMARK  299  A    between atoms: _770  and  _771
REMARK  300  A    between atoms: _775  and  _777
REMARK  301  A    between atoms: _777  and  _778
REMARK  302  A    between atoms: _777  and  _780
REMARK  303  A    between atoms: _780  and  _781
REMARK                            x       y       z     vdW  Elec       q    Type
REMARK                         _______ _______ _______ _____ _____    ______ ____
ROOT
ATOM      1  O   HOH     1      -8.835  -5.467 -11.481  0.00  0.00    +0.000 OA
ENDROOT
TORSDOF 0
REMARK  Name = ../refined-set-2016/1y3p/1y3p_pocket.pdb
REMARK  303 active torsions:
REMARK  status: ('A' for Active; 'I' for Inactive)
REMARK    1  A    between atoms: _1  and  _3
REMARK    2  A    between atoms: _3  and  _4
REMARK    3  A    between atoms: _3  and  _6
REMARK    4  A    between atoms: _6  and  _7
REMARK    5  A    between atoms: _12  and  _14
REMARK    6  A    between atoms: _14  and  _15
REMARK    7  A    between atoms: _14  and  _17
REMARK    8  A    between atoms: _17  and  _18
REMARK    9  A    between atoms: _24  and  _26
REMARK   10  A    between atoms: _26  and  _27
REMARK   11  A    between atoms: _26  and  _29
REMARK   12  A    between atoms: _29  and  _30
REMARK   13  A    between atoms: _30  and  _31
REMARK   14  A    between atoms: _31  and  _32
REMARK   15  A    between atoms: _41  and  _43
REMARK   16  A    between atoms: _43  and  _44
REMARK   17  A    between atoms: _43  and  _46
REMARK   18  A    between atoms: _46  and  _47
REMARK   19  A    between atoms: _50  and  _52
REMARK   20  A    between atoms: _52  and  _53
REMARK   21  A    between atoms: _52  and  _55
REMARK   22  A    between atoms: _55  and  _56
REMARK   23  A    between atoms: _56  and  _57
REMARK   24  A    between atoms: _57  and  _58
REMARK   25  A    between atoms: _58  and  _59
REMARK   26  A    between atoms: _63  and  _65
REMARK   27  A    between atoms: _65  and  _66
REMARK   28  A    between atoms: _65  and  _68
REMARK   29  A    between atoms: _68  and  _69
REMARK   30  A    between atoms: _79  and  _81
REMARK   31  A    between atoms: _81  and  _82
REMARK   32  A    between atoms: _81  and  _84
REMARK   33  A    between atoms: _84  and  _85
REMARK   34  A    between atoms: _88  and  _90
REMARK   35  A    between atoms: _90  and  _91
REMARK   36  A    between atoms: _90  and  _93
REMARK   37  A    between atoms: _93  and  _94
REMARK   38  A    between atoms: _99  and  _101
REMARK   39  A    between atoms: _101  and  _102
REMARK   40  A    between atoms: _101  and  _104
REMARK   41  A    between atoms: _104  and  _105
REMARK   42  A    between atoms: _107  and  _109
REMARK   43  A    between atoms: _109  and  _110
REMARK   44  A    between atoms: _109  and  _112
REMARK   45  A    between atoms: _112  and  _113
REMARK   46  A    between atoms: _113  and  _114
REMARK   47  A    between atoms: _119  and  _121
REMARK   48  A    between atoms: _121  and  _122
REMARK   49  A    between atoms: _121  and  _124
REMARK   50  A    between atoms: _124  and  _125
REMARK   51  A    between atoms: _125  and  _126
REMARK   52  A    between atoms: _129  and  _131
REMARK   53  A    between atoms: _131  and  _132
REMARK   54  A    between atoms: _134  and  _136
REMARK   55  A    between atoms: _136  and  _137
REMARK   56  A    between atoms: _136  and  _139
REMARK   57  A    between atoms: _139  and  _140
REMARK   58  A    between atoms: _143  and  _145
REMARK   59  A    between atoms: _145  and  _146
REMARK   60  A    between atoms: _145  and  _148
REMARK   61  A    between atoms: _148  and  _149
REMARK   62  A    between atoms: _154  and  _156
REMARK   63  A    between atoms: _156  and  _157
REMARK   64  A    between atoms: _156  and  _159
REMARK   65  A    between atoms: _159  and  _160
REMARK   66  A    between atoms: _163  and  _165
REMARK   67  A    between atoms: _165  and  _166
REMARK   68  A    between atoms: _165  and  _168
REMARK   69  A    between atoms: _168  and  _169
REMARK   70  A    between atoms: _169  and  _170
REMARK   71  A    between atoms: _170  and  _171
REMARK   72  A    between atoms: _171  and  _172
REMARK   73  A    between atoms: _176  and  _178
REMARK   74  A    between atoms: _178  and  _179
REMARK   75  A    between atoms: _178  and  _181
REMARK   76  A    between atoms: _181  and  _182
REMARK   77  A    between atoms: _187  and  _188
REMARK   78  A    between atoms: _191  and  _192
REMARK   79  A    between atoms: _197  and  _199
REMARK   80  A    between atoms: _199  and  _200
REMARK   81  A    between atoms: _199  and  _202
REMARK   82  A    between atoms: _202  and  _203
REMARK   83  A    between atoms: _206  and  _208
REMARK   84  A    between atoms: _208  and  _209
REMARK   85  A    between atoms: _211  and  _213
REMARK   86  A    between atoms: _213  and  _214
REMARK   87  A    between atoms: _213  and  _216
REMARK   88  A    between atoms: _219  and  _221
REMARK   89  A    between atoms: _221  and  _222
REMARK   90  A    between atoms: _221  and  _224
REMARK   91  A    between atoms: _224  and  _225
REMARK   92  A    between atoms: _227  and  _229
REMARK   93  A    between atoms: _229  and  _230
REMARK   94  A    between atoms: _229  and  _232
REMARK   95  A    between atoms: _232  and  _233
REMARK   96  A    between atoms: _233  and  _234
REMARK   97  A    between atoms: _234  and  _235
REMARK   98  A    between atoms: _244  and  _246
REMARK   99  A    between atoms: _246  and  _247
REMARK  100  A    between atoms: _246  and  _249
REMARK  101  A    between atoms: _249  and  _250
REMARK  102  A    between atoms: _255  and  _257
REMARK  103  A    between atoms: _257  and  _258
REMARK  104  A    between atoms: _257  and  _260
REMARK  105  A    between atoms: _260  and  _261
REMARK  106  A    between atoms: _261  and  _262
REMARK  107  A    between atoms: _262  and  _263
REMARK  108  A    between atoms: _272  and  _274
REMARK  109  A    between atoms: _274  and  _275
REMARK  110  A    between atoms: _274  and  _277
REMARK  111  A    between atoms: _277  and  _278
REMARK  112  A    between atoms: _282  and  _283
REMARK  113  A    between atoms: _288  and  _290
REMARK  114  A    between atoms: _290  and  _291
REMARK  115  A    between atoms: _290  and  _293
REMARK  116  A    between atoms: _293  and  _294
REMARK  117  A    between atoms: _294  and  _295
REMARK  118  A    between atoms: _298  and  _300
REMARK  119  A    between atoms: _300  and  _301
REMARK  120  A    between atoms: _300  and  _303
REMARK  121  A    between atoms: _303  and  _304
REMARK  122  A    between atoms: _304  and  _305
REMARK  123  A    between atoms: _308  and  _310
REMARK  124  A    between atoms: _310  and  _311
REMARK  125  A    between atoms: _310  and  _313
REMARK  126  A    between atoms: _313  and  _314
REMARK  127  A    between atoms: _319  and  _321
REMARK  128  A    between atoms: _321  and  _322
REMARK  129  A    between atoms: _321  and  _324
REMARK  130  A    between atoms: _324  and  _325
REMARK  131  A    between atoms: _328  and  _330
REMARK  132  A    between atoms: _330  and  _331
REMARK  133  A    between atoms: _330  and  _333
REMARK  134  A    between atoms: _333  and  _334
REMARK  135  A    between atoms: _344  and  _346
REMARK  136  A    between atoms: _346  and  _347
REMARK  137  A    between atoms: _346  and  _349
REMARK  138  A    between atoms: _349  and  _350
REMARK  139  A    between atoms: _350  and  _351
REMARK  140  A    between atoms: _353  and  _355
REMARK  141  A    between atoms: _355  and  _356
REMARK  142  A    between atoms: _355  and  _358
REMARK  143  A    between atoms: _358  and  _359
REMARK  144  A    between atoms: _359  and  _360
REMARK  145  A    between atoms: _360  and  _361
REMARK  146  A    between atoms: _361  and  _362
REMARK  147  A    between atoms: _366  and  _368
REMARK  148  A    between atoms: _368  and  _369
REMARK  149  A    between atoms: _372  and  _374
REMARK  150  A    between atoms: _374  and  _375
REMARK  151  A    between atoms: _374  and  _377
REMARK  152  A    between atoms: _377  and  _378
REMARK  153  A    between atoms: _378  and  _379
REMARK  154  A    between atoms: _379  and  _380
REMARK  155  A    between atoms: _389  and  _391
REMARK  156  A    between atoms: _391  and  _392
REMARK  157  A    between atoms: _391  and  _394
REMARK  158  A    between atoms: _394  and  _395
REMARK  159  A    between atoms: _398  and  _400
REMARK  160  A    between atoms: _400  and  _401
REMARK  161  A    between atoms: _400  and  _403
REMARK  162  A    between atoms: _403  and  _404
REMARK  163  A    between atoms: _414  and  _416
REMARK  164  A    between atoms: _416  and  _417
REMARK  165  A    between atoms: _416  and  _419
REMARK  166  A    between atoms: _419  and  _420
REMARK  167  A    between atoms: _426  and  _428
REMARK  168  A    between atoms: _428  and  _429
REMARK  169  A    between atoms: _432  and  _434
REMARK  170  A    between atoms: _434  and  _435
REMARK  171  A    between atoms: _434  and  _437
REMARK  172  A    between atoms: _437  and  _438
REMARK  173  A    between atoms: _440  and  _442
REMARK  174  A    between atoms: _442  and  _443
REMARK  175  A    between atoms: _442  and  _445
REMARK  176  A    between atoms: _445  and  _446
REMARK  177  A    between atoms: _449  and  _451
REMARK  178  A    between atoms: _451  and  _452
REMARK  179  A    between atoms: _455  and  _457
REMARK  180  A    between atoms: _457  and  _458
REMARK  181  A    between atoms: _457  and  _460
REMARK  182  A    between atoms: _460  and  _461
REMARK  183  A    between atoms: _464  and  _466
REMARK  184  A    between atoms: _466  and  _467
REMARK  185  A    between atoms: _466  and  _469
REMARK  186  A    between atoms: _469  and  _470
REMARK  187  A    between atoms: _473  and  _475
REMARK  188  A    between atoms: _475  and  _476
REMARK  189  A    between atoms: _475  and  _478
REMARK  190  A    between atoms: _478  and  _479
REMARK  191  A    between atoms: _479  and  _480
REMARK  192  A    between atoms: _480  and  _481
REMARK  193  A    between atoms: _490  and  _492
REMARK  194  A    between atoms: _492  and  _493
REMARK  195  A    between atoms: _492  and  _495
REMARK  196  A    between atoms: _495  and  _496
REMARK  197  A    between atoms: _496  and  _497
REMARK  198  A    between atoms: _502  and  _504
REMARK  199  A    between atoms: _504  and  _505
REMARK  200  A    between atoms: _504  and  _507
REMARK  201  A    between atoms: _507  and  _508
REMARK  202  A    between atoms: _508  and  _509
REMARK  203  A    between atoms: _509  and  _510
REMARK  204  A    between atoms: _520  and  _521
REMARK  205  A    between atoms: _526  and  _528
REMARK  206  A    between atoms: _528  and  _529
REMARK  207  A    between atoms: _528  and  _531
REMARK  208  A    between atoms: _531  and  _532
REMARK  209  A    between atoms: _535  and  _537
REMARK  210  A    between atoms: _537  and  _538
REMARK  211  A    between atoms: _537  and  _540
REMARK  212  A    between atoms: _540  and  _541
REMARK  213  A    between atoms: _547  and  _548
REMARK  214  A    between atoms: _553  and  _555
REMARK  215  A    between atoms: _555  and  _556
REMARK  216  A    between atoms: _555  and  _558
REMARK  217  A    between atoms: _561  and  _563
REMARK  218  A    between atoms: _563  and  _564
REMARK  219  A    between atoms: _563  and  _566
REMARK  220  A    between atoms: _566  and  _567
REMARK  221  A    between atoms: _572  and  _574
REMARK  222  A    between atoms: _574  and  _575
REMARK  223  A    between atoms: _574  and  _577
REMARK  224  A    between atoms: _577  and  _578
REMARK  225  A    between atoms: _583  and  _585
REMARK  226  A    between atoms: _585  and  _586
REMARK  227  A    between atoms: _585  and  _588
REMARK  228  A    between atoms: _588  and  _589
REMARK  229  A    between atoms: _589  and  _590
REMARK  230  A    between atoms: _592  and  _594
REMARK  231  A    between atoms: _594  and  _595
REMARK  232  A    between atoms: _594  and  _597
REMARK  233  A    between atoms: _597  and  _598
REMARK  234  A    between atoms: _603  and  _604
REMARK  235  A    between atoms: _606  and  _608
REMARK  236  A    between atoms: _608  and  _609
REMARK  237  A    between atoms: _608  and  _611
REMARK  238  A    between atoms: _611  and  _612
REMARK  239  A    between atoms: _612  and  _613
REMARK  240  A    between atoms: _618  and  _620
REMARK  241  A    between atoms: _620  and  _621
REMARK  242  A    between atoms: _620  and  _623
REMARK  243  A    between atoms: _623  and  _624
REMARK  244  A    between atoms: _628  and  _629
REMARK  245  A    between atoms: _634  and  _636
REMARK  246  A    between atoms: _636  and  _637
REMARK  247  A    between atoms: _636  and  _639
REMARK  248  A    between atoms: _639  and  _640
REMARK  249  A    between atoms: _646  and  _648
REMARK  250  A    between atoms: _648  and  _649
REMARK  251  A    between atoms: _648  and  _651
REMARK  252  A    between atoms: _651  and  _652
REMARK  253  A    between atoms: _652  and  _653
REMARK  254  A    between atoms: _658  and  _660
REMARK  255  A    between atoms: _660  and  _661
REMARK  256  A    between atoms: _660  and  _663
REMARK  257  A    between atoms: _663  and  _664
REMARK  258  A    between atoms: _667  and  _669
REMARK  259  A    between atoms: _669  and  _670
REMARK  260  A    between atoms: _669  and  _672
REMARK  261  A    between atoms: _672  and  _673
REMARK  262  A    between atoms: _678  and  _679
REMARK  263  A    between atoms: _681  and  _683
REMARK  264  A    between atoms: _683  and  _684
REMARK  265  A    between atoms: _683  and  _686
REMARK  266  A    between atoms: _686  and  _687
REMARK  267  A    between atoms: _692  and  _693
REMARK  268  A    between atoms: _695  and  _697
REMARK  269  A    between atoms: _697  and  _698
REMARK  270  A    between atoms: _697  and  _700
REMARK  271  A    between atoms: _700  and  _701
REMARK  272  A    between atoms: _701  and  _702
REMARK  273  A    between atoms: _705  and  _707
REMARK  274  A    between atoms: _707  and  _708
REMARK  275  A    between atoms: _707  and  _710
REMARK  276  A    between atoms: _710  and  _711
REMARK  277  A    between atoms: _711  and  _712
REMARK  278  A    between atoms: _712  and  _713
REMARK  279  A    between atoms: _722  and  _724
REMARK  280  A    between atoms: _724  and  _725
REMARK  281  A    between atoms: _724  and  _727
REMARK  282  A    between atoms: _727  and  _728
REMARK  283  A    between atoms: _738  and  _740
REMARK  284  A    between atoms: _740  and  _741
REMARK  285  A    between atoms: _740  and  _743
REMARK  286  A    between atoms: _743  and  _744
REMARK  287  A    between atoms: _747  and  _749
REMARK  288  A    between atoms: _749  and  _750
REMARK  289  A    between atoms: _753  and  _755
REMARK  290  A    between atoms: _755  and  _756
REMARK  291  A    between atoms: _755  and  _758
REMARK  292  A    between atoms: _758  and  _759
REMARK  293  A    between atoms: _762  and  _764
REMARK  294  A    between atoms: _764  and  _765
REMARK  295  A    between atoms: _764  and  _767
REMARK  296  A    between atoms: _767  and  _768
REMARK  297  A    between atoms: _768  and  _769
REMARK  298  A    between atoms: _769  and  _770
REMARK  299  A    between atoms: _770  and  _771
REMARK  300  A    between atoms: _775  and  _777
REMARK  301  A    between atoms: _777  and  _778
REMARK  302  A    between atoms: _777  and  _780
REMARK  303  A    between atoms: _780  and  _781
REMARK                            x       y       z     vdW  Elec       q    Type
REMARK                         _______ _______ _______ _____ _____    ______ ____
ROOT
ATOM      1  O   HOH     1     -15.480 -10.331 -10.923  0.00  0.00    +0.000 OA
ENDROOT
TORSDOF 0
REMARK  Name = ../refined-set-2016/1y3p/1y3p_pocket.pdb
REMARK  303 active torsions:
REMARK  status: ('A' for Active; 'I' for Inactive)
REMARK    1  A    between atoms: _1  and  _3
REMARK    2  A    between atoms: _3  and  _4
REMARK    3  A    between atoms: _3  and  _6
REMARK    4  A    between atoms: _6  and  _7
REMARK    5  A    between atoms: _12  and  _14
REMARK    6  A    between atoms: _14  and  _15
REMARK    7  A    between atoms: _14  and  _17
REMARK    8  A    between atoms: _17  and  _18
REMARK    9  A    between atoms: _24  and  _26
REMARK   10  A    between atoms: _26  and  _27
REMARK   11  A    between atoms: _26  and  _29
REMARK   12  A    between atoms: _29  and  _30
REMARK   13  A    between atoms: _30  and  _31
REMARK   14  A    between atoms: _31  and  _32
REMARK   15  A    between atoms: _41  and  _43
REMARK   16  A    between atoms: _43  and  _44
REMARK   17  A    between atoms: _43  and  _46
REMARK   18  A    between atoms: _46  and  _47
REMARK   19  A    between atoms: _50  and  _52
REMARK   20  A    between atoms: _52  and  _53
REMARK   21  A    between atoms: _52  and  _55
REMARK   22  A    between atoms: _55  and  _56
REMARK   23  A    between atoms: _56  and  _57
REMARK   24  A    between atoms: _57  and  _58
REMARK   25  A    between atoms: _58  and  _59
REMARK   26  A    between atoms: _63  and  _65
REMARK   27  A    between atoms: _65  and  _66
REMARK   28  A    between atoms: _65  and  _68
REMARK   29  A    between atoms: _68  and  _69
REMARK   30  A    between atoms: _79  and  _81
REMARK   31  A    between atoms: _81  and  _82
REMARK   32  A    between atoms: _81  and  _84
REMARK   33  A    between atoms: _84  and  _85
REMARK   34  A    between atoms: _88  and  _90
REMARK   35  A    between atoms: _90  and  _91
REMARK   36  A    between atoms: _90  and  _93
REMARK   37  A    between atoms: _93  and  _94
REMARK   38  A    between atoms: _99  and  _101
REMARK   39  A    between atoms: _101  and  _102
REMARK   40  A    between atoms: _101  and  _104
REMARK   41  A    between atoms: _104  and  _105
REMARK   42  A    between atoms: _107  and  _109
REMARK   43  A    between atoms: _109  and  _110
REMARK   44  A    between atoms: _109  and  _112
REMARK   45  A    between atoms: _112  and  _113
REMARK   46  A    between atoms: _113  and  _114
REMARK   47  A    between atoms: _119  and  _121
REMARK   48  A    between atoms: _121  and  _122
REMARK   49  A    between atoms: _121  and  _124
REMARK   50  A    between atoms: _124  and  _125
REMARK   51  A    between atoms: _125  and  _126
REMARK   52  A    between atoms: _129  and  _131
REMARK   53  A    between atoms: _131  and  _132
REMARK   54  A    between atoms: _134  and  _136
REMARK   55  A    between atoms: _136  and  _137
REMARK   56  A    between atoms: _136  and  _139
REMARK   57  A    between atoms: _139  and  _140
REMARK   58  A    between atoms: _143  and  _145
REMARK   59  A    between atoms: _145  and  _146
REMARK   60  A    between atoms: _145  and  _148
REMARK   61  A    between atoms: _148  and  _149
REMARK   62  A    between atoms: _154  and  _156
REMARK   63  A    between atoms: _156  and  _157
REMARK   64  A    between atoms: _156  and  _159
REMARK   65  A    between atoms: _159  and  _160
REMARK   66  A    between atoms: _163  and  _165
REMARK   67  A    between atoms: _165  and  _166
REMARK   68  A    between atoms: _165  and  _168
REMARK   69  A    between atoms: _168  and  _169
REMARK   70  A    between atoms: _169  and  _170
REMARK   71  A    between atoms: _170  and  _171
REMARK   72  A    between atoms: _171  and  _172
REMARK   73  A    between atoms: _176  and  _178
REMARK   74  A    between atoms: _178  and  _179
REMARK   75  A    between atoms: _178  and  _181
REMARK   76  A    between atoms: _181  and  _182
REMARK   77  A    between atoms: _187  and  _188
REMARK   78  A    between atoms: _191  and  _192
REMARK   79  A    between atoms: _197  and  _199
REMARK   80  A    between atoms: _199  and  _200
REMARK   81  A    between atoms: _199  and  _202
REMARK   82  A    between atoms: _202  and  _203
REMARK   83  A    between atoms: _206  and  _208
REMARK   84  A    between atoms: _208  and  _209
REMARK   85  A    between atoms: _211  and  _213
REMARK   86  A    between atoms: _213  and  _214
REMARK   87  A    between atoms: _213  and  _216
REMARK   88  A    between atoms: _219  and  _221
REMARK   89  A    between atoms: _221  and  _222
REMARK   90  A    between atoms: _221  and  _224
REMARK   91  A    between atoms: _224  and  _225
REMARK   92  A    between atoms: _227  and  _229
REMARK   93  A    between atoms: _229  and  _230
REMARK   94  A    between atoms: _229  and  _232
REMARK   95  A    between atoms: _232  and  _233
REMARK   96  A    between atoms: _233  and  _234
REMARK   97  A    between atoms: _234  and  _235
REMARK   98  A    between atoms: _244  and  _246
REMARK   99  A    between atoms: _246  and  _247
REMARK  100  A    between atoms: _246  and  _249
REMARK  101  A    between atoms: _249  and  _250
REMARK  102  A    between atoms: _255  and  _257
REMARK  103  A    between atoms: _257  and  _258
REMARK  104  A    between atoms: _257  and  _260
REMARK  105  A    between atoms: _260  and  _261
REMARK  106  A    between atoms: _261  and  _262
REMARK  107  A    between atoms: _262  and  _263
REMARK  108  A    between atoms: _272  and  _274
REMARK  109  A    between atoms: _274  and  _275
REMARK  110  A    between atoms: _274  and  _277
REMARK  111  A    between atoms: _277  and  _278
REMARK  112  A    between atoms: _282  and  _283
REMARK  113  A    between atoms: _288  and  _290
REMARK  114  A    between atoms: _290  and  _291
REMARK  115  A    between atoms: _290  and  _293
REMARK  116  A    between atoms: _293  and  _294
REMARK  117  A    between atoms: _294  and  _295
REMARK  118  A    between atoms: _298  and  _300
REMARK  119  A    between atoms: _300  and  _301
REMARK  120  A    between atoms: _300  and  _303
REMARK  121  A    between atoms: _303  and  _304
REMARK  122  A    between atoms: _304  and  _305
REMARK  123  A    between atoms: _308  and  _310
REMARK  124  A    between atoms: _310  and  _311
REMARK  125  A    between atoms: _310  and  _313
REMARK  126  A    between atoms: _313  and  _314
REMARK  127  A    between atoms: _319  and  _321
REMARK  128  A    between atoms: _321  and  _322
REMARK  129  A    between atoms: _321  and  _324
REMARK  130  A    between atoms: _324  and  _325
REMARK  131  A    between atoms: _328  and  _330
REMARK  132  A    between atoms: _330  and  _331
REMARK  133  A    between atoms: _330  and  _333
REMARK  134  A    between atoms: _333  and  _334
REMARK  135  A    between atoms: _344  and  _346
REMARK  136  A    between atoms: _346  and  _347
REMARK  137  A    between atoms: _346  and  _349
REMARK  138  A    between atoms: _349  and  _350
REMARK  139  A    between atoms: _350  and  _351
REMARK  140  A    between atoms: _353  and  _355
REMARK  141  A    between atoms: _355  and  _356
REMARK  142  A    between atoms: _355  and  _358
REMARK  143  A    between atoms: _358  and  _359
REMARK  144  A    between atoms: _359  and  _360
REMARK  145  A    between atoms: _360  and  _361
REMARK  146  A    between atoms: _361  and  _362
REMARK  147  A    between atoms: _366  and  _368
REMARK  148  A    between atoms: _368  and  _369
REMARK  149  A    between atoms: _372  and  _374
REMARK  150  A    between atoms: _374  and  _375
REMARK  151  A    between atoms: _374  and  _377
REMARK  152  A    between atoms: _377  and  _378
REMARK  153  A    between atoms: _378  and  _379
REMARK  154  A    between atoms: _379  and  _380
REMARK  155  A    between atoms: _389  and  _391
REMARK  156  A    between atoms: _391  and  _392
REMARK  157  A    between atoms: _391  and  _394
REMARK  158  A    between atoms: _394  and  _395
REMARK  159  A    between atoms: _398  and  _400
REMARK  160  A    between atoms: _400  and  _401
REMARK  161  A    between atoms: _400  and  _403
REMARK  162  A    between atoms: _403  and  _404
REMARK  163  A    between atoms: _414  and  _416
REMARK  164  A    between atoms: _416  and  _417
REMARK  165  A    between atoms: _416  and  _419
REMARK  166  A    between atoms: _419  and  _420
REMARK  167  A    between atoms: _426  and  _428
REMARK  168  A    between atoms: _428  and  _429
REMARK  169  A    between atoms: _432  and  _434
REMARK  170  A    between atoms: _434  and  _435
REMARK  171  A    between atoms: _434  and  _437
REMARK  172  A    between atoms: _437  and  _438
REMARK  173  A    between atoms: _440  and  _442
REMARK  174  A    between atoms: _442  and  _443
REMARK  175  A    between atoms: _442  and  _445
REMARK  176  A    between atoms: _445  and  _446
REMARK  177  A    between atoms: _449  and  _451
REMARK  178  A    between atoms: _451  and  _452
REMARK  179  A    between atoms: _455  and  _457
REMARK  180  A    between atoms: _457  and  _458
REMARK  181  A    between atoms: _457  and  _460
REMARK  182  A    between atoms: _460  and  _461
REMARK  183  A    between atoms: _464  and  _466
REMARK  184  A    between atoms: _466  and  _467
REMARK  185  A    between atoms: _466  and  _469
REMARK  186  A    between atoms: _469  and  _470
REMARK  187  A    between atoms: _473  and  _475
REMARK  188  A    between atoms: _475  and  _476
REMARK  189  A    between atoms: _475  and  _478
REMARK  190  A    between atoms: _478  and  _479
REMARK  191  A    between atoms: _479  and  _480
REMARK  192  A    between atoms: _480  and  _481
REMARK  193  A    between atoms: _490  and  _492
REMARK  194  A    between atoms: _492  and  _493
REMARK  195  A    between atoms: _492  and  _495
REMARK  196  A    between atoms: _495  and  _496
REMARK  197  A    between atoms: _496  and  _497
REMARK  198  A    between atoms: _502  and  _504
REMARK  199  A    between atoms: _504  and  _505
REMARK  200  A    between atoms: _504  and  _507
REMARK  201  A    between atoms: _507  and  _508
REMARK  202  A    between atoms: _508  and  _509
REMARK  203  A    between atoms: _509  and  _510
REMARK  204  A    between atoms: _520  and  _521
REMARK  205  A    between atoms: _526  and  _528
REMARK  206  A    between atoms: _528  and  _529
REMARK  207  A    between atoms: _528  and  _531
REMARK  208  A    between atoms: _531  and  _532
REMARK  209  A    between atoms: _535  and  _537
REMARK  210  A    between atoms: _537  and  _538
REMARK  211  A    between atoms: _537  and  _540
REMARK  212  A    between atoms: _540  and  _541
REMARK  213  A    between atoms: _547  and  _548
REMARK  214  A    between atoms: _553  and  _555
REMARK  215  A    between atoms: _555  and  _556
REMARK  216  A    between atoms: _555  and  _558
REMARK  217  A    between atoms: _561  and  _563
REMARK  218  A    between atoms: _563  and  _564
REMARK  219  A    between atoms: _563  and  _566
REMARK  220  A    between atoms: _566  and  _567
REMARK  221  A    between atoms: _572  and  _574
REMARK  222  A    between atoms: _574  and  _575
REMARK  223  A    between atoms: _574  and  _577
REMARK  224  A    between atoms: _577  and  _578
REMARK  225  A    between atoms: _583  and  _585
REMARK  226  A    between atoms: _585  and  _586
REMARK  227  A    between atoms: _585  and  _588
REMARK  228  A    between atoms: _588  and  _589
REMARK  229  A    between atoms: _589  and  _590
REMARK  230  A    between atoms: _592  and  _594
REMARK  231  A    between atoms: _594  and  _595
REMARK  232  A    between atoms: _594  and  _597
REMARK  233  A    between atoms: _597  and  _598
REMARK  234  A    between atoms: _603  and  _604
REMARK  235  A    between atoms: _606  and  _608
REMARK  236  A    between atoms: _608  and  _609
REMARK  237  A    between atoms: _608  and  _611
REMARK  238  A    between atoms: _611  and  _612
REMARK  239  A    between atoms: _612  and  _613
REMARK  240  A    between atoms: _618  and  _620
REMARK  241  A    between atoms: _620  and  _621
REMARK  242  A    between atoms: _620  and  _623
REMARK  243  A    between atoms: _623  and  _624
REMARK  244  A    between atoms: _628  and  _629
REMARK  245  A    between atoms: _634  and  _636
REMARK  246  A    between atoms: _636  and  _637
REMARK  247  A    between atoms: _636  and  _639
REMARK  248  A    between atoms: _639  and  _640
REMARK  249  A    between atoms: _646  and  _648
REMARK  250  A    between atoms: _648  and  _649
REMARK  251  A    between atoms: _648  and  _651
REMARK  252  A    between atoms: _651  and  _652
REMARK  253  A    between atoms: _652  and  _653
REMARK  254  A    between atoms: _658  and  _660
REMARK  255  A    between atoms: _660  and  _661
REMARK  256  A    between atoms: _660  and  _663
REMARK  257  A    between atoms: _663  and  _664
REMARK  258  A    between atoms: _667  and  _669
REMARK  259  A    between atoms: _669  and  _670
REMARK  260  A    between atoms: _669  and  _672
REMARK  261  A    between atoms: _672  and  _673
REMARK  262  A    between atoms: _678  and  _679
REMARK  263  A    between atoms: _681  and  _683
REMARK  264  A    between atoms: _683  and  _684
REMARK  265  A    between atoms: _683  and  _686
REMARK  266  A    between atoms: _686  and  _687
REMARK  267  A    between atoms: _692  and  _693
REMARK  268  A    between atoms: _695  and  _697
REMARK  269  A    between atoms: _697  and  _698
REMARK  270  A    between atoms: _697  and  _700
REMARK  271  A    between atoms: _700  and  _701
REMARK  272  A    between atoms: _701  and  _702
REMARK  273  A    between atoms: _705  and  _707
REMARK  274  A    between atoms: _707  and  _708
REMARK  275  A    between atoms: _707  and  _710
REMARK  276  A    between atoms: _710  and  _711
REMARK  277  A    between atoms: _711  and  _712
REMARK  278  A    between atoms: _712  and  _713
REMARK  279  A    between atoms: _722  and  _724
REMARK  280  A    between atoms: _724  and  _725
REMARK  281  A    between atoms: _724  and  _727
REMARK  282  A    between atoms: _727  and  _728
REMARK  283  A    between atoms: _738  and  _740
REMARK  284  A    between atoms: _740  and  _741
REMARK  285  A    between atoms: _740  and  _743
REMARK  286  A    between atoms: _743  and  _744
REMARK  287  A    between atoms: _747  and  _749
REMARK  288  A    between atoms: _749  and  _750
REMARK  289  A    between atoms: _753  and  _755
REMARK  290  A    between atoms: _755  and  _756
REMARK  291  A    between atoms: _755  and  _758
REMARK  292  A    between atoms: _758  and  _759
REMARK  293  A    between atoms: _762  and  _764
REMARK  294  A    between atoms: _764  and  _765
REMARK  295  A    between atoms: _764  and  _767
REMARK  296  A    between atoms: _767  and  _768
REMARK  297  A    between atoms: _768  and  _769
REMARK  298  A    between atoms: _769  and  _770
REMARK  299  A    between atoms: _770  and  _771
REMARK  300  A    between atoms: _775  and  _777
REMARK  301  A    between atoms: _777  and  _778
REMARK  302  A    between atoms: _777  and  _780
REMARK  303  A    between atoms: _780  and  _781
REMARK                            x       y       z     vdW  Elec       q    Type
REMARK                         _______ _______ _______ _____ _____    ______ ____
ROOT
ATOM      1  O   HOH     1     -15.978   1.801 -20.281  0.00  0.00    +0.000 OA
ENDROOT
TORSDOF 0
REMARK  Name = ../refined-set-2016/1y3p/1y3p_pocket.pdb
REMARK  303 active torsions:
REMARK  status: ('A' for Active; 'I' for Inactive)
REMARK    1  A    between atoms: _1  and  _3
REMARK    2  A    between atoms: _3  and  _4
REMARK    3  A    between atoms: _3  and  _6
REMARK    4  A    between atoms: _6  and  _7
REMARK    5  A    between atoms: _12  and  _14
REMARK    6  A    between atoms: _14  and  _15
REMARK    7  A    between atoms: _14  and  _17
REMARK    8  A    between atoms: _17  and  _18
REMARK    9  A    between atoms: _24  and  _26
REMARK   10  A    between atoms: _26  and  _27
REMARK   11  A    between atoms: _26  and  _29
REMARK   12  A    between atoms: _29  and  _30
REMARK   13  A    between atoms: _30  and  _31
REMARK   14  A    between atoms: _31  and  _32
REMARK   15  A    between atoms: _41  and  _43
REMARK   16  A    between atoms: _43  and  _44
REMARK   17  A    between atoms: _43  and  _46
REMARK   18  A    between atoms: _46  and  _47
REMARK   19  A    between atoms: _50  and  _52
REMARK   20  A    between atoms: _52  and  _53
REMARK   21  A    between atoms: _52  and  _55
REMARK   22  A    between atoms: _55  and  _56
REMARK   23  A    between atoms: _56  and  _57
REMARK   24  A    between atoms: _57  and  _58
REMARK   25  A    between atoms: _58  and  _59
REMARK   26  A    between atoms: _63  and  _65
REMARK   27  A    between atoms: _65  and  _66
REMARK   28  A    between atoms: _65  and  _68
REMARK   29  A    between atoms: _68  and  _69
REMARK   30  A    between atoms: _79  and  _81
REMARK   31  A    between atoms: _81  and  _82
REMARK   32  A    between atoms: _81  and  _84
REMARK   33  A    between atoms: _84  and  _85
REMARK   34  A    between atoms: _88  and  _90
REMARK   35  A    between atoms: _90  and  _91
REMARK   36  A    between atoms: _90  and  _93
REMARK   37  A    between atoms: _93  and  _94
REMARK   38  A    between atoms: _99  and  _101
REMARK   39  A    between atoms: _101  and  _102
REMARK   40  A    between atoms: _101  and  _104
REMARK   41  A    between atoms: _104  and  _105
REMARK   42  A    between atoms: _107  and  _109
REMARK   43  A    between atoms: _109  and  _110
REMARK   44  A    between atoms: _109  and  _112
REMARK   45  A    between atoms: _112  and  _113
REMARK   46  A    between atoms: _113  and  _114
REMARK   47  A    between atoms: _119  and  _121
REMARK   48  A    between atoms: _121  and  _122
REMARK   49  A    between atoms: _121  and  _124
REMARK   50  A    between atoms: _124  and  _125
REMARK   51  A    between atoms: _125  and  _126
REMARK   52  A    between atoms: _129  and  _131
REMARK   53  A    between atoms: _131  and  _132
REMARK   54  A    between atoms: _134  and  _136
REMARK   55  A    between atoms: _136  and  _137
REMARK   56  A    between atoms: _136  and  _139
REMARK   57  A    between atoms: _139  and  _140
REMARK   58  A    between atoms: _143  and  _145
REMARK   59  A    between atoms: _145  and  _146
REMARK   60  A    between atoms: _145  and  _148
REMARK   61  A    between atoms: _148  and  _149
REMARK   62  A    between atoms: _154  and  _156
REMARK   63  A    between atoms: _156  and  _157
REMARK   64  A    between atoms: _156  and  _159
REMARK   65  A    between atoms: _159  and  _160
REMARK   66  A    between atoms: _163  and  _165
REMARK   67  A    between atoms: _165  and  _166
REMARK   68  A    between atoms: _165  and  _168
REMARK   69  A    between atoms: _168  and  _169
REMARK   70  A    between atoms: _169  and  _170
REMARK   71  A    between atoms: _170  and  _171
REMARK   72  A    between atoms: _171  and  _172
REMARK   73  A    between atoms: _176  and  _178
REMARK   74  A    between atoms: _178  and  _179
REMARK   75  A    between atoms: _178  and  _181
REMARK   76  A    between atoms: _181  and  _182
REMARK   77  A    between atoms: _187  and  _188
REMARK   78  A    between atoms: _191  and  _192
REMARK   79  A    between atoms: _197  and  _199
REMARK   80  A    between atoms: _199  and  _200
REMARK   81  A    between atoms: _199  and  _202
REMARK   82  A    between atoms: _202  and  _203
REMARK   83  A    between atoms: _206  and  _208
REMARK   84  A    between atoms: _208  and  _209
REMARK   85  A    between atoms: _211  and  _213
REMARK   86  A    between atoms: _213  and  _214
REMARK   87  A    between atoms: _213  and  _216
REMARK   88  A    between atoms: _219  and  _221
REMARK   89  A    between atoms: _221  and  _222
REMARK   90  A    between atoms: _221  and  _224
REMARK   91  A    between atoms: _224  and  _225
REMARK   92  A    between atoms: _227  and  _229
REMARK   93  A    between atoms: _229  and  _230
REMARK   94  A    between atoms: _229  and  _232
REMARK   95  A    between atoms: _232  and  _233
REMARK   96  A    between atoms: _233  and  _234
REMARK   97  A    between atoms: _234  and  _235
REMARK   98  A    between atoms: _244  and  _246
REMARK   99  A    between atoms: _246  and  _247
REMARK  100  A    between atoms: _246  and  _249
REMARK  101  A    between atoms: _249  and  _250
REMARK  102  A    between atoms: _255  and  _257
REMARK  103  A    between atoms: _257  and  _258
REMARK  104  A    between atoms: _257  and  _260
REMARK  105  A    between atoms: _260  and  _261
REMARK  106  A    between atoms: _261  and  _262
REMARK  107  A    between atoms: _262  and  _263
REMARK  108  A    between atoms: _272  and  _274
REMARK  109  A    between atoms: _274  and  _275
REMARK  110  A    between atoms: _274  and  _277
REMARK  111  A    between atoms: _277  and  _278
REMARK  112  A    between atoms: _282  and  _283
REMARK  113  A    between atoms: _288  and  _290
REMARK  114  A    between atoms: _290  and  _291
REMARK  115  A    between atoms: _290  and  _293
REMARK  116  A    between atoms: _293  and  _294
REMARK  117  A    between atoms: _294  and  _295
REMARK  118  A    between atoms: _298  and  _300
REMARK  119  A    between atoms: _300  and  _301
REMARK  120  A    between atoms: _300  and  _303
REMARK  121  A    between atoms: _303  and  _304
REMARK  122  A    between atoms: _304  and  _305
REMARK  123  A    between atoms: _308  and  _310
REMARK  124  A    between atoms: _310  and  _311
REMARK  125  A    between atoms: _310  and  _313
REMARK  126  A    between atoms: _313  and  _314
REMARK  127  A    between atoms: _319  and  _321
REMARK  128  A    between atoms: _321  and  _322
REMARK  129  A    between atoms: _321  and  _324
REMARK  130  A    between atoms: _324  and  _325
REMARK  131  A    between atoms: _328  and  _330
REMARK  132  A    between atoms: _330  and  _331
REMARK  133  A    between atoms: _330  and  _333
REMARK  134  A    between atoms: _333  and  _334
REMARK  135  A    between atoms: _344  and  _346
REMARK  136  A    between atoms: _346  and  _347
REMARK  137  A    between atoms: _346  and  _349
REMARK  138  A    between atoms: _349  and  _350
REMARK  139  A    between atoms: _350  and  _351
REMARK  140  A    between atoms: _353  and  _355
REMARK  141  A    between atoms: _355  and  _356
REMARK  142  A    between atoms: _355  and  _358
REMARK  143  A    between atoms: _358  and  _359
REMARK  144  A    between atoms: _359  and  _360
REMARK  145  A    between atoms: _360  and  _361
REMARK  146  A    between atoms: _361  and  _362
REMARK  147  A    between atoms: _366  and  _368
REMARK  148  A    between atoms: _368  and  _369
REMARK  149  A    between atoms: _372  and  _374
REMARK  150  A    between atoms: _374  and  _375
REMARK  151  A    between atoms: _374  and  _377
REMARK  152  A    between atoms: _377  and  _378
REMARK  153  A    between atoms: _378  and  _379
REMARK  154  A    between atoms: _379  and  _380
REMARK  155  A    between atoms: _389  and  _391
REMARK  156  A    between atoms: _391  and  _392
REMARK  157  A    between atoms: _391  and  _394
REMARK  158  A    between atoms: _394  and  _395
REMARK  159  A    between atoms: _398  and  _400
REMARK  160  A    between atoms: _400  and  _401
REMARK  161  A    between atoms: _400  and  _403
REMARK  162  A    between atoms: _403  and  _404
REMARK  163  A    between atoms: _414  and  _416
REMARK  164  A    between atoms: _416  and  _417
REMARK  165  A    between atoms: _416  and  _419
REMARK  166  A    between atoms: _419  and  _420
REMARK  167  A    between atoms: _426  and  _428
REMARK  168  A    between atoms: _428  and  _429
REMARK  169  A    between atoms: _432  and  _434
REMARK  170  A    between atoms: _434  and  _435
REMARK  171  A    between atoms: _434  and  _437
REMARK  172  A    between atoms: _437  and  _438
REMARK  173  A    between atoms: _440  and  _442
REMARK  174  A    between atoms: _442  and  _443
REMARK  175  A    between atoms: _442  and  _445
REMARK  176  A    between atoms: _445  and  _446
REMARK  177  A    between atoms: _449  and  _451
REMARK  178  A    between atoms: _451  and  _452
REMARK  179  A    between atoms: _455  and  _457
REMARK  180  A    between atoms: _457  and  _458
REMARK  181  A    between atoms: _457  and  _460
REMARK  182  A    between atoms: _460  and  _461
REMARK  183  A    between atoms: _464  and  _466
REMARK  184  A    between atoms: _466  and  _467
REMARK  185  A    between atoms: _466  and  _469
REMARK  186  A    between atoms: _469  and  _470
REMARK  187  A    between atoms: _473  and  _475
REMARK  188  A    between atoms: _475  and  _476
REMARK  189  A    between atoms: _475  and  _478
REMARK  190  A    between atoms: _478  and  _479
REMARK  191  A    between atoms: _479  and  _480
REMARK  192  A    between atoms: _480  and  _481
REMARK  193  A    between atoms: _490  and  _492
REMARK  194  A    between atoms: _492  and  _493
REMARK  195  A    between atoms: _492  and  _495
REMARK  196  A    between atoms: _495  and  _496
REMARK  197  A    between atoms: _496  and  _497
REMARK  198  A    between atoms: _502  and  _504
REMARK  199  A    between atoms: _504  and  _505
REMARK  200  A    between atoms: _504  and  _507
REMARK  201  A    between atoms: _507  and  _508
REMARK  202  A    between atoms: _508  and  _509
REMARK  203  A    between atoms: _509  and  _510
REMARK  204  A    between atoms: _520  and  _521
REMARK  205  A    between atoms: _526  and  _528
REMARK  206  A    between atoms: _528  and  _529
REMARK  207  A    between atoms: _528  and  _531
REMARK  208  A    between atoms: _531  and  _532
REMARK  209  A    between atoms: _535  and  _537
REMARK  210  A    between atoms: _537  and  _538
REMARK  211  A    between atoms: _537  and  _540
REMARK  212  A    between atoms: _540  and  _541
REMARK  213  A    between atoms: _547  and  _548
REMARK  214  A    between atoms: _553  and  _555
REMARK  215  A    between atoms: _555  and  _556
REMARK  216  A    between atoms: _555  and  _558
REMARK  217  A    between atoms: _561  and  _563
REMARK  218  A    between atoms: _563  and  _564
REMARK  219  A    between atoms: _563  and  _566
REMARK  220  A    between atoms: _566  and  _567
REMARK  221  A    between atoms: _572  and  _574
REMARK  222  A    between atoms: _574  and  _575
REMARK  223  A    between atoms: _574  and  _577
REMARK  224  A    between atoms: _577  and  _578
REMARK  225  A    between atoms: _583  and  _585
REMARK  226  A    between atoms: _585  and  _586
REMARK  227  A    between atoms: _585  and  _588
REMARK  228  A    between atoms: _588  and  _589
REMARK  229  A    between atoms: _589  and  _590
REMARK  230  A    between atoms: _592  and  _594
REMARK  231  A    between atoms: _594  and  _595
REMARK  232  A    between atoms: _594  and  _597
REMARK  233  A    between atoms: _597  and  _598
REMARK  234  A    between atoms: _603  and  _604
REMARK  235  A    between atoms: _606  and  _608
REMARK  236  A    between atoms: _608  and  _609
REMARK  237  A    between atoms: _608  and  _611
REMARK  238  A    between atoms: _611  and  _612
REMARK  239  A    between atoms: _612  and  _613
REMARK  240  A    between atoms: _618  and  _620
REMARK  241  A    between atoms: _620  and  _621
REMARK  242  A    between atoms: _620  and  _623
REMARK  243  A    between atoms: _623  and  _624
REMARK  244  A    between atoms: _628  and  _629
REMARK  245  A    between atoms: _634  and  _636
REMARK  246  A    between atoms: _636  and  _637
REMARK  247  A    between atoms: _636  and  _639
REMARK  248  A    between atoms: _639  and  _640
REMARK  249  A    between atoms: _646  and  _648
REMARK  250  A    between atoms: _648  and  _649
REMARK  251  A    between atoms: _648  and  _651
REMARK  252  A    between atoms: _651  and  _652
REMARK  253  A    between atoms: _652  and  _653
REMARK  254  A    between atoms: _658  and  _660
REMARK  255  A    between atoms: _660  and  _661
REMARK  256  A    between atoms: _660  and  _663
REMARK  257  A    between atoms: _663  and  _664
REMARK  258  A    between atoms: _667  and  _669
REMARK  259  A    between atoms: _669  and  _670
REMARK  260  A    between atoms: _669  and  _672
REMARK  261  A    between atoms: _672  and  _673
REMARK  262  A    between atoms: _678  and  _679
REMARK  263  A    between atoms: _681  and  _683
REMARK  264  A    between atoms: _683  and  _684
REMARK  265  A    between atoms: _683  and  _686
REMARK  266  A    between atoms: _686  and  _687
REMARK  267  A    between atoms: _692  and  _693
REMARK  268  A    between atoms: _695  and  _697
REMARK  269  A    between atoms: _697  and  _698
REMARK  270  A    between atoms: _697  and  _700
REMARK  271  A    between atoms: _700  and  _701
REMARK  272  A    between atoms: _701  and  _702
REMARK  273  A    between atoms: _705  and  _707
REMARK  274  A    between atoms: _707  and  _708
REMARK  275  A    between atoms: _707  and  _710
REMARK  276  A    between atoms: _710  and  _711
REMARK  277  A    between atoms: _711  and  _712
REMARK  278  A    between atoms: _712  and  _713
REMARK  279  A    between atoms: _722  and  _724
REMARK  280  A    between atoms: _724  and  _725
REMARK  281  A    between atoms: _724  and  _727
REMARK  282  A    between atoms: _727  and  _728
REMARK  283  A    between atoms: _738  and  _740
REMARK  284  A    between atoms: _740  and  _741
REMARK  285  A    between atoms: _740  and  _743
REMARK  286  A    between atoms: _743  and  _744
REMARK  287  A    between atoms: _747  and  _749
REMARK  288  A    between atoms: _749  and  _750
REMARK  289  A    between atoms: _753  and  _755
REMARK  290  A    between atoms: _755  and  _756
REMARK  291  A    between atoms: _755  and  _758
REMARK  292  A    between atoms: _758  and  _759
REMARK  293  A    between atoms: _762  and  _764
REMARK  294  A    between atoms: _764  and  _765
REMARK  295  A    between atoms: _764  and  _767
REMARK  296  A    between atoms: _767  and  _768
REMARK  297  A    between atoms: _768  and  _769
REMARK  298  A    between atoms: _769  and  _770
REMARK  299  A    between atoms: _770  and  _771
REMARK  300  A    between atoms: _775  and  _777
REMARK  301  A    between atoms: _777  and  _778
REMARK  302  A    between atoms: _777  and  _780
REMARK  303  A    between atoms: _780  and  _781
REMARK                            x       y       z     vdW  Elec       q    Type
REMARK                         _______ _______ _______ _____ _____    ______ ____
ROOT
ATOM      1  O   HOH     1     -17.561  -2.820  -2.317  0.00  0.00    +0.000 OA
ENDROOT
TORSDOF 0
REMARK  Name = ../refined-set-2016/1y3p/1y3p_pocket.pdb
REMARK  303 active torsions:
REMARK  status: ('A' for Active; 'I' for Inactive)
REMARK    1  A    between atoms: _1  and  _3
REMARK    2  A    between atoms: _3  and  _4
REMARK    3  A    between atoms: _3  and  _6
REMARK    4  A    between atoms: _6  and  _7
REMARK    5  A    between atoms: _12  and  _14
REMARK    6  A    between atoms: _14  and  _15
REMARK    7  A    between atoms: _14  and  _17
REMARK    8  A    between atoms: _17  and  _18
REMARK    9  A    between atoms: _24  and  _26
REMARK   10  A    between atoms: _26  and  _27
REMARK   11  A    between atoms: _26  and  _29
REMARK   12  A    between atoms: _29  and  _30
REMARK   13  A    between atoms: _30  and  _31
REMARK   14  A    between atoms: _31  and  _32
REMARK   15  A    between atoms: _41  and  _43
REMARK   16  A    between atoms: _43  and  _44
REMARK   17  A    between atoms: _43  and  _46
REMARK   18  A    between atoms: _46  and  _47
REMARK   19  A    between atoms: _50  and  _52
REMARK   20  A    between atoms: _52  and  _53
REMARK   21  A    between atoms: _52  and  _55
REMARK   22  A    between atoms: _55  and  _56
REMARK   23  A    between atoms: _56  and  _57
REMARK   24  A    between atoms: _57  and  _58
REMARK   25  A    between atoms: _58  and  _59
REMARK   26  A    between atoms: _63  and  _65
REMARK   27  A    between atoms: _65  and  _66
REMARK   28  A    between atoms: _65  and  _68
REMARK   29  A    between atoms: _68  and  _69
REMARK   30  A    between atoms: _79  and  _81
REMARK   31  A    between atoms: _81  and  _82
REMARK   32  A    between atoms: _81  and  _84
REMARK   33  A    between atoms: _84  and  _85
REMARK   34  A    between atoms: _88  and  _90
REMARK   35  A    between atoms: _90  and  _91
REMARK   36  A    between atoms: _90  and  _93
REMARK   37  A    between atoms: _93  and  _94
REMARK   38  A    between atoms: _99  and  _101
REMARK   39  A    between atoms: _101  and  _102
REMARK   40  A    between atoms: _101  and  _104
REMARK   41  A    between atoms: _104  and  _105
REMARK   42  A    between atoms: _107  and  _109
REMARK   43  A    between atoms: _109  and  _110
REMARK   44  A    between atoms: _109  and  _112
REMARK   45  A    between atoms: _112  and  _113
REMARK   46  A    between atoms: _113  and  _114
REMARK   47  A    between atoms: _119  and  _121
REMARK   48  A    between atoms: _121  and  _122
REMARK   49  A    between atoms: _121  and  _124
REMARK   50  A    between atoms: _124  and  _125
REMARK   51  A    between atoms: _125  and  _126
REMARK   52  A    between atoms: _129  and  _131
REMARK   53  A    between atoms: _131  and  _132
REMARK   54  A    between atoms: _134  and  _136
REMARK   55  A    between atoms: _136  and  _137
REMARK   56  A    between atoms: _136  and  _139
REMARK   57  A    between atoms: _139  and  _140
REMARK   58  A    between atoms: _143  and  _145
REMARK   59  A    between atoms: _145  and  _146
REMARK   60  A    between atoms: _145  and  _148
REMARK   61  A    between atoms: _148  and  _149
REMARK   62  A    between atoms: _154  and  _156
REMARK   63  A    between atoms: _156  and  _157
REMARK   64  A    between atoms: _156  and  _159
REMARK   65  A    between atoms: _159  and  _160
REMARK   66  A    between atoms: _163  and  _165
REMARK   67  A    between atoms: _165  and  _166
REMARK   68  A    between atoms: _165  and  _168
REMARK   69  A    between atoms: _168  and  _169
REMARK   70  A    between atoms: _169  and  _170
REMARK   71  A    between atoms: _170  and  _171
REMARK   72  A    between atoms: _171  and  _172
REMARK   73  A    between atoms: _176  and  _178
REMARK   74  A    between atoms: _178  and  _179
REMARK   75  A    between atoms: _178  and  _181
REMARK   76  A    between atoms: _181  and  _182
REMARK   77  A    between atoms: _187  and  _188
REMARK   78  A    between atoms: _191  and  _192
REMARK   79  A    between atoms: _197  and  _199
REMARK   80  A    between atoms: _199  and  _200
REMARK   81  A    between atoms: _199  and  _202
REMARK   82  A    between atoms: _202  and  _203
REMARK   83  A    between atoms: _206  and  _208
REMARK   84  A    between atoms: _208  and  _209
REMARK   85  A    between atoms: _211  and  _213
REMARK   86  A    between atoms: _213  and  _214
REMARK   87  A    between atoms: _213  and  _216
REMARK   88  A    between atoms: _219  and  _221
REMARK   89  A    between atoms: _221  and  _222
REMARK   90  A    between atoms: _221  and  _224
REMARK   91  A    between atoms: _224  and  _225
REMARK   92  A    between atoms: _227  and  _229
REMARK   93  A    between atoms: _229  and  _230
REMARK   94  A    between atoms: _229  and  _232
REMARK   95  A    between atoms: _232  and  _233
REMARK   96  A    between atoms: _233  and  _234
REMARK   97  A    between atoms: _234  and  _235
REMARK   98  A    between atoms: _244  and  _246
REMARK   99  A    between atoms: _246  and  _247
REMARK  100  A    between atoms: _246  and  _249
REMARK  101  A    between atoms: _249  and  _250
REMARK  102  A    between atoms: _255  and  _257
REMARK  103  A    between atoms: _257  and  _258
REMARK  104  A    between atoms: _257  and  _260
REMARK  105  A    between atoms: _260  and  _261
REMARK  106  A    between atoms: _261  and  _262
REMARK  107  A    between atoms: _262  and  _263
REMARK  108  A    between atoms: _272  and  _274
REMARK  109  A    between atoms: _274  and  _275
REMARK  110  A    between atoms: _274  and  _277
REMARK  111  A    between atoms: _277  and  _278
REMARK  112  A    between atoms: _282  and  _283
REMARK  113  A    between atoms: _288  and  _290
REMARK  114  A    between atoms: _290  and  _291
REMARK  115  A    between atoms: _290  and  _293
REMARK  116  A    between atoms: _293  and  _294
REMARK  117  A    between atoms: _294  and  _295
REMARK  118  A    between atoms: _298  and  _300
REMARK  119  A    between atoms: _300  and  _301
REMARK  120  A    between atoms: _300  and  _303
REMARK  121  A    between atoms: _303  and  _304
REMARK  122  A    between atoms: _304  and  _305
REMARK  123  A    between atoms: _308  and  _310
REMARK  124  A    between atoms: _310  and  _311
REMARK  125  A    between atoms: _310  and  _313
REMARK  126  A    between atoms: _313  and  _314
REMARK  127  A    between atoms: _319  and  _321
REMARK  128  A    between atoms: _321  and  _322
REMARK  129  A    between atoms: _321  and  _324
REMARK  130  A    between atoms: _324  and  _325
REMARK  131  A    between atoms: _328  and  _330
REMARK  132  A    between atoms: _330  and  _331
REMARK  133  A    between atoms: _330  and  _333
REMARK  134  A    between atoms: _333  and  _334
REMARK  135  A    between atoms: _344  and  _346
REMARK  136  A    between atoms: _346  and  _347
REMARK  137  A    between atoms: _346  and  _349
REMARK  138  A    between atoms: _349  and  _350
REMARK  139  A    between atoms: _350  and  _351
REMARK  140  A    between atoms: _353  and  _355
REMARK  141  A    between atoms: _355  and  _356
REMARK  142  A    between atoms: _355  and  _358
REMARK  143  A    between atoms: _358  and  _359
REMARK  144  A    between atoms: _359  and  _360
REMARK  145  A    between atoms: _360  and  _361
REMARK  146  A    between atoms: _361  and  _362
REMARK  147  A    between atoms: _366  and  _368
REMARK  148  A    between atoms: _368  and  _369
REMARK  149  A    between atoms: _372  and  _374
REMARK  150  A    between atoms: _374  and  _375
REMARK  151  A    between atoms: _374  and  _377
REMARK  152  A    between atoms: _377  and  _378
REMARK  153  A    between atoms: _378  and  _379
REMARK  154  A    between atoms: _379  and  _380
REMARK  155  A    between atoms: _389  and  _391
REMARK  156  A    between atoms: _391  and  _392
REMARK  157  A    between atoms: _391  and  _394
REMARK  158  A    between atoms: _394  and  _395
REMARK  159  A    between atoms: _398  and  _400
REMARK  160  A    between atoms: _400  and  _401
REMARK  161  A    between atoms: _400  and  _403
REMARK  162  A    between atoms: _403  and  _404
REMARK  163  A    between atoms: _414  and  _416
REMARK  164  A    between atoms: _416  and  _417
REMARK  165  A    between atoms: _416  and  _419
REMARK  166  A    between atoms: _419  and  _420
REMARK  167  A    between atoms: _426  and  _428
REMARK  168  A    between atoms: _428  and  _429
REMARK  169  A    between atoms: _432  and  _434
REMARK  170  A    between atoms: _434  and  _435
REMARK  171  A    between atoms: _434  and  _437
REMARK  172  A    between atoms: _437  and  _438
REMARK  173  A    between atoms: _440  and  _442
REMARK  174  A    between atoms: _442  and  _443
REMARK  175  A    between atoms: _442  and  _445
REMARK  176  A    between atoms: _445  and  _446
REMARK  177  A    between atoms: _449  and  _451
REMARK  178  A    between atoms: _451  and  _452
REMARK  179  A    between atoms: _455  and  _457
REMARK  180  A    between atoms: _457  and  _458
REMARK  181  A    between atoms: _457  and  _460
REMARK  182  A    between atoms: _460  and  _461
REMARK  183  A    between atoms: _464  and  _466
REMARK  184  A    between atoms: _466  and  _467
REMARK  185  A    between atoms: _466  and  _469
REMARK  186  A    between atoms: _469  and  _470
REMARK  187  A    between atoms: _473  and  _475
REMARK  188  A    between atoms: _475  and  _476
REMARK  189  A    between atoms: _475  and  _478
REMARK  190  A    between atoms: _478  and  _479
REMARK  191  A    between atoms: _479  and  _480
REMARK  192  A    between atoms: _480  and  _481
REMARK  193  A    between atoms: _490  and  _492
REMARK  194  A    between atoms: _492  and  _493
REMARK  195  A    between atoms: _492  and  _495
REMARK  196  A    between atoms: _495  and  _496
REMARK  197  A    between atoms: _496  and  _497
REMARK  198  A    between atoms: _502  and  _504
REMARK  199  A    between atoms: _504  and  _505
REMARK  200  A    between atoms: _504  and  _507
REMARK  201  A    between atoms: _507  and  _508
REMARK  202  A    between atoms: _508  and  _509
REMARK  203  A    between atoms: _509  and  _510
REMARK  204  A    between atoms: _520  and  _521
REMARK  205  A    between atoms: _526  and  _528
REMARK  206  A    between atoms: _528  and  _529
REMARK  207  A    between atoms: _528  and  _531
REMARK  208  A    between atoms: _531  and  _532
REMARK  209  A    between atoms: _535  and  _537
REMARK  210  A    between atoms: _537  and  _538
REMARK  211  A    between atoms: _537  and  _540
REMARK  212  A    between atoms: _540  and  _541
REMARK  213  A    between atoms: _547  and  _548
REMARK  214  A    between atoms: _553  and  _555
REMARK  215  A    between atoms: _555  and  _556
REMARK  216  A    between atoms: _555  and  _558
REMARK  217  A    between atoms: _561  and  _563
REMARK  218  A    between atoms: _563  and  _564
REMARK  219  A    between atoms: _563  and  _566
REMARK  220  A    between atoms: _566  and  _567
REMARK  221  A    between atoms: _572  and  _574
REMARK  222  A    between atoms: _574  and  _575
REMARK  223  A    between atoms: _574  and  _577
REMARK  224  A    between atoms: _577  and  _578
REMARK  225  A    between atoms: _583  and  _585
REMARK  226  A    between atoms: _585  and  _586
REMARK  227  A    between atoms: _585  and  _588
REMARK  228  A    between atoms: _588  and  _589
REMARK  229  A    between atoms: _589  and  _590
REMARK  230  A    between atoms: _592  and  _594
REMARK  231  A    between atoms: _594  and  _595
REMARK  232  A    between atoms: _594  and  _597
REMARK  233  A    between atoms: _597  and  _598
REMARK  234  A    between atoms: _603  and  _604
REMARK  235  A    between atoms: _606  and  _608
REMARK  236  A    between atoms: _608  and  _609
REMARK  237  A    between atoms: _608  and  _611
REMARK  238  A    between atoms: _611  and  _612
REMARK  239  A    between atoms: _612  and  _613
REMARK  240  A    between atoms: _618  and  _620
REMARK  241  A    between atoms: _620  and  _621
REMARK  242  A    between atoms: _620  and  _623
REMARK  243  A    between atoms: _623  and  _624
REMARK  244  A    between atoms: _628  and  _629
REMARK  245  A    between atoms: _634  and  _636
REMARK  246  A    between atoms: _636  and  _637
REMARK  247  A    between atoms: _636  and  _639
REMARK  248  A    between atoms: _639  and  _640
REMARK  249  A    between atoms: _646  and  _648
REMARK  250  A    between atoms: _648  and  _649
REMARK  251  A    between atoms: _648  and  _651
REMARK  252  A    between atoms: _651  and  _652
REMARK  253  A    between atoms: _652  and  _653
REMARK  254  A    between atoms: _658  and  _660
REMARK  255  A    between atoms: _660  and  _661
REMARK  256  A    between atoms: _660  and  _663
REMARK  257  A    between atoms: _663  and  _664
REMARK  258  A    between atoms: _667  and  _669
REMARK  259  A    between atoms: _669  and  _670
REMARK  260  A    between atoms: _669  and  _672
REMARK  261  A    between atoms: _672  and  _673
REMARK  262  A    between atoms: _678  and  _679
REMARK  263  A    between atoms: _681  and  _683
REMARK  264  A    between atoms: _683  and  _684
REMARK  265  A    between atoms: _683  and  _686
REMARK  266  A    between atoms: _686  and  _687
REMARK  267  A    between atoms: _692  and  _693
REMARK  268  A    between atoms: _695  and  _697
REMARK  269  A    between atoms: _697  and  _698
REMARK  270  A    between atoms: _697  and  _700
REMARK  271  A    between atoms: _700  and  _701
REMARK  272  A    between atoms: _701  and  _702
REMARK  273  A    between atoms: _705  and  _707
REMARK  274  A    between atoms: _707  and  _708
REMARK  275  A    between atoms: _707  and  _710
REMARK  276  A    between atoms: _710  and  _711
REMARK  277  A    between atoms: _711  and  _712
REMARK  278  A    between atoms: _712  and  _713
REMARK  279  A    between atoms: _722  and  _724
REMARK  280  A    between atoms: _724  and  _725
REMARK  281  A    between atoms: _724  and  _727
REMARK  282  A    between atoms: _727  and  _728
REMARK  283  A    between atoms: _738  and  _740
REMARK  284  A    between atoms: _740  and  _741
REMARK  285  A    between atoms: _740  and  _743
REMARK  286  A    between atoms: _743  and  _744
REMARK  287  A    between atoms: _747  and  _749
REMARK  288  A    between atoms: _749  and  _750
REMARK  289  A    between atoms: _753  and  _755
REMARK  290  A    between atoms: _755  and  _756
REMARK  291  A    between atoms: _755  and  _758
REMARK  292  A    between atoms: _758  and  _759
REMARK  293  A    between atoms: _762  and  _764
REMARK  294  A    between atoms: _764  and  _765
REMARK  295  A    between atoms: _764  and  _767
REMARK  296  A    between atoms: _767  and  _768
REMARK  297  A    between atoms: _768  and  _769
REMARK  298  A    between atoms: _769  and  _770
REMARK  299  A    between atoms: _770  and  _771
REMARK  300  A    between atoms: _775  and  _777
REMARK  301  A    between atoms: _777  and  _778
REMARK  302  A    between atoms: _777  and  _780
REMARK  303  A    between atoms: _780  and  _781
REMARK                            x       y       z     vdW  Elec       q    Type
REMARK                         _______ _______ _______ _____ _____    ______ ____
ROOT
ATOM      1  O   HOH     1     -22.740   1.193  -6.135  0.00  0.00    +0.000 OA
ENDROOT
TORSDOF 0
REMARK  Name = ../refined-set-2016/1y3p/1y3p_pocket.pdb
REMARK  303 active torsions:
REMARK  status: ('A' for Active; 'I' for Inactive)
REMARK    1  A    between atoms: _1  and  _3
REMARK    2  A    between atoms: _3  and  _4
REMARK    3  A    between atoms: _3  and  _6
REMARK    4  A    between atoms: _6  and  _7
REMARK    5  A    between atoms: _12  and  _14
REMARK    6  A    between atoms: _14  and  _15
REMARK    7  A    between atoms: _14  and  _17
REMARK    8  A    between atoms: _17  and  _18
REMARK    9  A    between atoms: _24  and  _26
REMARK   10  A    between atoms: _26  and  _27
REMARK   11  A    between atoms: _26  and  _29
REMARK   12  A    between atoms: _29  and  _30
REMARK   13  A    between atoms: _30  and  _31
REMARK   14  A    between atoms: _31  and  _32
REMARK   15  A    between atoms: _41  and  _43
REMARK   16  A    between atoms: _43  and  _44
REMARK   17  A    between atoms: _43  and  _46
REMARK   18  A    between atoms: _46  and  _47
REMARK   19  A    between atoms: _50  and  _52
REMARK   20  A    between atoms: _52  and  _53
REMARK   21  A    between atoms: _52  and  _55
REMARK   22  A    between atoms: _55  and  _56
REMARK   23  A    between atoms: _56  and  _57
REMARK   24  A    between atoms: _57  and  _58
REMARK   25  A    between atoms: _58  and  _59
REMARK   26  A    between atoms: _63  and  _65
REMARK   27  A    between atoms: _65  and  _66
REMARK   28  A    between atoms: _65  and  _68
REMARK   29  A    between atoms: _68  and  _69
REMARK   30  A    between atoms: _79  and  _81
REMARK   31  A    between atoms: _81  and  _82
REMARK   32  A    between atoms: _81  and  _84
REMARK   33  A    between atoms: _84  and  _85
REMARK   34  A    between atoms: _88  and  _90
REMARK   35  A    between atoms: _90  and  _91
REMARK   36  A    between atoms: _90  and  _93
REMARK   37  A    between atoms: _93  and  _94
REMARK   38  A    between atoms: _99  and  _101
REMARK   39  A    between atoms: _101  and  _102
REMARK   40  A    between atoms: _101  and  _104
REMARK   41  A    between atoms: _104  and  _105
REMARK   42  A    between atoms: _107  and  _109
REMARK   43  A    between atoms: _109  and  _110
REMARK   44  A    between atoms: _109  and  _112
REMARK   45  A    between atoms: _112  and  _113
REMARK   46  A    between atoms: _113  and  _114
REMARK   47  A    between atoms: _119  and  _121
REMARK   48  A    between atoms: _121  and  _122
REMARK   49  A    between atoms: _121  and  _124
REMARK   50  A    between atoms: _124  and  _125
REMARK   51  A    between atoms: _125  and  _126
REMARK   52  A    between atoms: _129  and  _131
REMARK   53  A    between atoms: _131  and  _132
REMARK   54  A    between atoms: _134  and  _136
REMARK   55  A    between atoms: _136  and  _137
REMARK   56  A    between atoms: _136  and  _139
REMARK   57  A    between atoms: _139  and  _140
REMARK   58  A    between atoms: _143  and  _145
REMARK   59  A    between atoms: _145  and  _146
REMARK   60  A    between atoms: _145  and  _148
REMARK   61  A    between atoms: _148  and  _149
REMARK   62  A    between atoms: _154  and  _156
REMARK   63  A    between atoms: _156  and  _157
REMARK   64  A    between atoms: _156  and  _159
REMARK   65  A    between atoms: _159  and  _160
REMARK   66  A    between atoms: _163  and  _165
REMARK   67  A    between atoms: _165  and  _166
REMARK   68  A    between atoms: _165  and  _168
REMARK   69  A    between atoms: _168  and  _169
REMARK   70  A    between atoms: _169  and  _170
REMARK   71  A    between atoms: _170  and  _171
REMARK   72  A    between atoms: _171  and  _172
REMARK   73  A    between atoms: _176  and  _178
REMARK   74  A    between atoms: _178  and  _179
REMARK   75  A    between atoms: _178  and  _181
REMARK   76  A    between atoms: _181  and  _182
REMARK   77  A    between atoms: _187  and  _188
REMARK   78  A    between atoms: _191  and  _192
REMARK   79  A    between atoms: _197  and  _199
REMARK   80  A    between atoms: _199  and  _200
REMARK   81  A    between atoms: _199  and  _202
REMARK   82  A    between atoms: _202  and  _203
REMARK   83  A    between atoms: _206  and  _208
REMARK   84  A    between atoms: _208  and  _209
REMARK   85  A    between atoms: _211  and  _213
REMARK   86  A    between atoms: _213  and  _214
REMARK   87  A    between atoms: _213  and  _216
REMARK   88  A    between atoms: _219  and  _221
REMARK   89  A    between atoms: _221  and  _222
REMARK   90  A    between atoms: _221  and  _224
REMARK   91  A    between atoms: _224  and  _225
REMARK   92  A    between atoms: _227  and  _229
REMARK   93  A    between atoms: _229  and  _230
REMARK   94  A    between atoms: _229  and  _232
REMARK   95  A    between atoms: _232  and  _233
REMARK   96  A    between atoms: _233  and  _234
REMARK   97  A    between atoms: _234  and  _235
REMARK   98  A    between atoms: _244  and  _246
REMARK   99  A    between atoms: _246  and  _247
REMARK  100  A    between atoms: _246  and  _249
REMARK  101  A    between atoms: _249  and  _250
REMARK  102  A    between atoms: _255  and  _257
REMARK  103  A    between atoms: _257  and  _258
REMARK  104  A    between atoms: _257  and  _260
REMARK  105  A    between atoms: _260  and  _261
REMARK  106  A    between atoms: _261  and  _262
REMARK  107  A    between atoms: _262  and  _263
REMARK  108  A    between atoms: _272  and  _274
REMARK  109  A    between atoms: _274  and  _275
REMARK  110  A    between atoms: _274  and  _277
REMARK  111  A    between atoms: _277  and  _278
REMARK  112  A    between atoms: _282  and  _283
REMARK  113  A    between atoms: _288  and  _290
REMARK  114  A    between atoms: _290  and  _291
REMARK  115  A    between atoms: _290  and  _293
REMARK  116  A    between atoms: _293  and  _294
REMARK  117  A    between atoms: _294  and  _295
REMARK  118  A    between atoms: _298  and  _300
REMARK  119  A    between atoms: _300  and  _301
REMARK  120  A    between atoms: _300  and  _303
REMARK  121  A    between atoms: _303  and  _304
REMARK  122  A    between atoms: _304  and  _305
REMARK  123  A    between atoms: _308  and  _310
REMARK  124  A    between atoms: _310  and  _311
REMARK  125  A    between atoms: _310  and  _313
REMARK  126  A    between atoms: _313  and  _314
REMARK  127  A    between atoms: _319  and  _321
REMARK  128  A    between atoms: _321  and  _322
REMARK  129  A    between atoms: _321  and  _324
REMARK  130  A    between atoms: _324  and  _325
REMARK  131  A    between atoms: _328  and  _330
REMARK  132  A    between atoms: _330  and  _331
REMARK  133  A    between atoms: _330  and  _333
REMARK  134  A    between atoms: _333  and  _334
REMARK  135  A    between atoms: _344  and  _346
REMARK  136  A    between atoms: _346  and  _347
REMARK  137  A    between atoms: _346  and  _349
REMARK  138  A    between atoms: _349  and  _350
REMARK  139  A    between atoms: _350  and  _351
REMARK  140  A    between atoms: _353  and  _355
REMARK  141  A    between atoms: _355  and  _356
REMARK  142  A    between atoms: _355  and  _358
REMARK  143  A    between atoms: _358  and  _359
REMARK  144  A    between atoms: _359  and  _360
REMARK  145  A    between atoms: _360  and  _361
REMARK  146  A    between atoms: _361  and  _362
REMARK  147  A    between atoms: _366  and  _368
REMARK  148  A    between atoms: _368  and  _369
REMARK  149  A    between atoms: _372  and  _374
REMARK  150  A    between atoms: _374  and  _375
REMARK  151  A    between atoms: _374  and  _377
REMARK  152  A    between atoms: _377  and  _378
REMARK  153  A    between atoms: _378  and  _379
REMARK  154  A    between atoms: _379  and  _380
REMARK  155  A    between atoms: _389  and  _391
REMARK  156  A    between atoms: _391  and  _392
REMARK  157  A    between atoms: _391  and  _394
REMARK  158  A    between atoms: _394  and  _395
REMARK  159  A    between atoms: _398  and  _400
REMARK  160  A    between atoms: _400  and  _401
REMARK  161  A    between atoms: _400  and  _403
REMARK  162  A    between atoms: _403  and  _404
REMARK  163  A    between atoms: _414  and  _416
REMARK  164  A    between atoms: _416  and  _417
REMARK  165  A    between atoms: _416  and  _419
REMARK  166  A    between atoms: _419  and  _420
REMARK  167  A    between atoms: _426  and  _428
REMARK  168  A    between atoms: _428  and  _429
REMARK  169  A    between atoms: _432  and  _434
REMARK  170  A    between atoms: _434  and  _435
REMARK  171  A    between atoms: _434  and  _437
REMARK  172  A    between atoms: _437  and  _438
REMARK  173  A    between atoms: _440  and  _442
REMARK  174  A    between atoms: _442  and  _443
REMARK  175  A    between atoms: _442  and  _445
REMARK  176  A    between atoms: _445  and  _446
REMARK  177  A    between atoms: _449  and  _451
REMARK  178  A    between atoms: _451  and  _452
REMARK  179  A    between atoms: _455  and  _457
REMARK  180  A    between atoms: _457  and  _458
REMARK  181  A    between atoms: _457  and  _460
REMARK  182  A    between atoms: _460  and  _461
REMARK  183  A    between atoms: _464  and  _466
REMARK  184  A    between atoms: _466  and  _467
REMARK  185  A    between atoms: _466  and  _469
REMARK  186  A    between atoms: _469  and  _470
REMARK  187  A    between atoms: _473  and  _475
REMARK  188  A    between atoms: _475  and  _476
REMARK  189  A    between atoms: _475  and  _478
REMARK  190  A    between atoms: _478  and  _479
REMARK  191  A    between atoms: _479  and  _480
REMARK  192  A    between atoms: _480  and  _481
REMARK  193  A    between atoms: _490  and  _492
REMARK  194  A    between atoms: _492  and  _493
REMARK  195  A    between atoms: _492  and  _495
REMARK  196  A    between atoms: _495  and  _496
REMARK  197  A    between atoms: _496  and  _497
REMARK  198  A    between atoms: _502  and  _504
REMARK  199  A    between atoms: _504  and  _505
REMARK  200  A    between atoms: _504  and  _507
REMARK  201  A    between atoms: _507  and  _508
REMARK  202  A    between atoms: _508  and  _509
REMARK  203  A    between atoms: _509  and  _510
REMARK  204  A    between atoms: _520  and  _521
REMARK  205  A    between atoms: _526  and  _528
REMARK  206  A    between atoms: _528  and  _529
REMARK  207  A    between atoms: _528  and  _531
REMARK  208  A    between atoms: _531  and  _532
REMARK  209  A    between atoms: _535  and  _537
REMARK  210  A    between atoms: _537  and  _538
REMARK  211  A    between atoms: _537  and  _540
REMARK  212  A    between atoms: _540  and  _541
REMARK  213  A    between atoms: _547  and  _548
REMARK  214  A    between atoms: _553  and  _555
REMARK  215  A    between atoms: _555  and  _556
REMARK  216  A    between atoms: _555  and  _558
REMARK  217  A    between atoms: _561  and  _563
REMARK  218  A    between atoms: _563  and  _564
REMARK  219  A    between atoms: _563  and  _566
REMARK  220  A    between atoms: _566  and  _567
REMARK  221  A    between atoms: _572  and  _574
REMARK  222  A    between atoms: _574  and  _575
REMARK  223  A    between atoms: _574  and  _577
REMARK  224  A    between atoms: _577  and  _578
REMARK  225  A    between atoms: _583  and  _585
REMARK  226  A    between atoms: _585  and  _586
REMARK  227  A    between atoms: _585  and  _588
REMARK  228  A    between atoms: _588  and  _589
REMARK  229  A    between atoms: _589  and  _590
REMARK  230  A    between atoms: _592  and  _594
REMARK  231  A    between atoms: _594  and  _595
REMARK  232  A    between atoms: _594  and  _597
REMARK  233  A    between atoms: _597  and  _598
REMARK  234  A    between atoms: _603  and  _604
REMARK  235  A    between atoms: _606  and  _608
REMARK  236  A    between atoms: _608  and  _609
REMARK  237  A    between atoms: _608  and  _611
REMARK  238  A    between atoms: _611  and  _612
REMARK  239  A    between atoms: _612  and  _613
REMARK  240  A    between atoms: _618  and  _620
REMARK  241  A    between atoms: _620  and  _621
REMARK  242  A    between atoms: _620  and  _623
REMARK  243  A    between atoms: _623  and  _624
REMARK  244  A    between atoms: _628  and  _629
REMARK  245  A    between atoms: _634  and  _636
REMARK  246  A    between atoms: _636  and  _637
REMARK  247  A    between atoms: _636  and  _639
REMARK  248  A    between atoms: _639  and  _640
REMARK  249  A    between atoms: _646  and  _648
REMARK  250  A    between atoms: _648  and  _649
REMARK  251  A    between atoms: _648  and  _651
REMARK  252  A    between atoms: _651  and  _652
REMARK  253  A    between atoms: _652  and  _653
REMARK  254  A    between atoms: _658  and  _660
REMARK  255  A    between atoms: _660  and  _661
REMARK  256  A    between atoms: _660  and  _663
REMARK  257  A    between atoms: _663  and  _664
REMARK  258  A    between atoms: _667  and  _669
REMARK  259  A    between atoms: _669  and  _670
REMARK  260  A    between atoms: _669  and  _672
REMARK  261  A    between atoms: _672  and  _673
REMARK  262  A    between atoms: _678  and  _679
REMARK  263  A    between atoms: _681  and  _683
REMARK  264  A    between atoms: _683  and  _684
REMARK  265  A    between atoms: _683  and  _686
REMARK  266  A    between atoms: _686  and  _687
REMARK  267  A    between atoms: _692  and  _693
REMARK  268  A    between atoms: _695  and  _697
REMARK  269  A    between atoms: _697  and  _698
REMARK  270  A    between atoms: _697  and  _700
REMARK  271  A    between atoms: _700  and  _701
REMARK  272  A    between atoms: _701  and  _702
REMARK  273  A    between atoms: _705  and  _707
REMARK  274  A    between atoms: _707  and  _708
REMARK  275  A    between atoms: _707  and  _710
REMARK  276  A    between atoms: _710  and  _711
REMARK  277  A    between atoms: _711  and  _712
REMARK  278  A    between atoms: _712  and  _713
REMARK  279  A    between atoms: _722  and  _724
REMARK  280  A    between atoms: _724  and  _725
REMARK  281  A    between atoms: _724  and  _727
REMARK  282  A    between atoms: _727  and  _728
REMARK  283  A    between atoms: _738  and  _740
REMARK  284  A    between atoms: _740  and  _741
REMARK  285  A    between atoms: _740  and  _743
REMARK  286  A    between atoms: _743  and  _744
REMARK  287  A    between atoms: _747  and  _749
REMARK  288  A    between atoms: _749  and  _750
REMARK  289  A    between atoms: _753  and  _755
REMARK  290  A    between atoms: _755  and  _756
REMARK  291  A    between atoms: _755  and  _758
REMARK  292  A    between atoms: _758  and  _759
REMARK  293  A    between atoms: _762  and  _764
REMARK  294  A    between atoms: _764  and  _765
REMARK  295  A    between atoms: _764  and  _767
REMARK  296  A    between atoms: _767  and  _768
REMARK  297  A    between atoms: _768  and  _769
REMARK  298  A    between atoms: _769  and  _770
REMARK  299  A    between atoms: _770  and  _771
REMARK  300  A    between atoms: _775  and  _777
REMARK  301  A    between atoms: _777  and  _778
REMARK  302  A    between atoms: _777  and  _780
REMARK  303  A    between atoms: _780  and  _781
REMARK                            x       y       z     vdW  Elec       q    Type
REMARK                         _______ _______ _______ _____ _____    ______ ____
ROOT
ATOM      1  O   HOH     1      -5.412 -12.277  -6.138  0.00  0.00    +0.000 OA
ENDROOT
TORSDOF 0
REMARK  Name = ../refined-set-2016/1y3p/1y3p_pocket.pdb
REMARK  303 active torsions:
REMARK  status: ('A' for Active; 'I' for Inactive)
REMARK    1  A    between atoms: _1  and  _3
REMARK    2  A    between atoms: _3  and  _4
REMARK    3  A    between atoms: _3  and  _6
REMARK    4  A    between atoms: _6  and  _7
REMARK    5  A    between atoms: _12  and  _14
REMARK    6  A    between atoms: _14  and  _15
REMARK    7  A    between atoms: _14  and  _17
REMARK    8  A    between atoms: _17  and  _18
REMARK    9  A    between atoms: _24  and  _26
REMARK   10  A    between atoms: _26  and  _27
REMARK   11  A    between atoms: _26  and  _29
REMARK   12  A    between atoms: _29  and  _30
REMARK   13  A    between atoms: _30  and  _31
REMARK   14  A    between atoms: _31  and  _32
REMARK   15  A    between atoms: _41  and  _43
REMARK   16  A    between atoms: _43  and  _44
REMARK   17  A    between atoms: _43  and  _46
REMARK   18  A    between atoms: _46  and  _47
REMARK   19  A    between atoms: _50  and  _52
REMARK   20  A    between atoms: _52  and  _53
REMARK   21  A    between atoms: _52  and  _55
REMARK   22  A    between atoms: _55  and  _56
REMARK   23  A    between atoms: _56  and  _57
REMARK   24  A    between atoms: _57  and  _58
REMARK   25  A    between atoms: _58  and  _59
REMARK   26  A    between atoms: _63  and  _65
REMARK   27  A    between atoms: _65  and  _66
REMARK   28  A    between atoms: _65  and  _68
REMARK   29  A    between atoms: _68  and  _69
REMARK   30  A    between atoms: _79  and  _81
REMARK   31  A    between atoms: _81  and  _82
REMARK   32  A    between atoms: _81  and  _84
REMARK   33  A    between atoms: _84  and  _85
REMARK   34  A    between atoms: _88  and  _90
REMARK   35  A    between atoms: _90  and  _91
REMARK   36  A    between atoms: _90  and  _93
REMARK   37  A    between atoms: _93  and  _94
REMARK   38  A    between atoms: _99  and  _101
REMARK   39  A    between atoms: _101  and  _102
REMARK   40  A    between atoms: _101  and  _104
REMARK   41  A    between atoms: _104  and  _105
REMARK   42  A    between atoms: _107  and  _109
REMARK   43  A    between atoms: _109  and  _110
REMARK   44  A    between atoms: _109  and  _112
REMARK   45  A    between atoms: _112  and  _113
REMARK   46  A    between atoms: _113  and  _114
REMARK   47  A    between atoms: _119  and  _121
REMARK   48  A    between atoms: _121  and  _122
REMARK   49  A    between atoms: _121  and  _124
REMARK   50  A    between atoms: _124  and  _125
REMARK   51  A    between atoms: _125  and  _126
REMARK   52  A    between atoms: _129  and  _131
REMARK   53  A    between atoms: _131  and  _132
REMARK   54  A    between atoms: _134  and  _136
REMARK   55  A    between atoms: _136  and  _137
REMARK   56  A    between atoms: _136  and  _139
REMARK   57  A    between atoms: _139  and  _140
REMARK   58  A    between atoms: _143  and  _145
REMARK   59  A    between atoms: _145  and  _146
REMARK   60  A    between atoms: _145  and  _148
REMARK   61  A    between atoms: _148  and  _149
REMARK   62  A    between atoms: _154  and  _156
REMARK   63  A    between atoms: _156  and  _157
REMARK   64  A    between atoms: _156  and  _159
REMARK   65  A    between atoms: _159  and  _160
REMARK   66  A    between atoms: _163  and  _165
REMARK   67  A    between atoms: _165  and  _166
REMARK   68  A    between atoms: _165  and  _168
REMARK   69  A    between atoms: _168  and  _169
REMARK   70  A    between atoms: _169  and  _170
REMARK   71  A    between atoms: _170  and  _171
REMARK   72  A    between atoms: _171  and  _172
REMARK   73  A    between atoms: _176  and  _178
REMARK   74  A    between atoms: _178  and  _179
REMARK   75  A    between atoms: _178  and  _181
REMARK   76  A    between atoms: _181  and  _182
REMARK   77  A    between atoms: _187  and  _188
REMARK   78  A    between atoms: _191  and  _192
REMARK   79  A    between atoms: _197  and  _199
REMARK   80  A    between atoms: _199  and  _200
REMARK   81  A    between atoms: _199  and  _202
REMARK   82  A    between atoms: _202  and  _203
REMARK   83  A    between atoms: _206  and  _208
REMARK   84  A    between atoms: _208  and  _209
REMARK   85  A    between atoms: _211  and  _213
REMARK   86  A    between atoms: _213  and  _214
REMARK   87  A    between atoms: _213  and  _216
REMARK   88  A    between atoms: _219  and  _221
REMARK   89  A    between atoms: _221  and  _222
REMARK   90  A    between atoms: _221  and  _224
REMARK   91  A    between atoms: _224  and  _225
REMARK   92  A    between atoms: _227  and  _229
REMARK   93  A    between atoms: _229  and  _230
REMARK   94  A    between atoms: _229  and  _232
REMARK   95  A    between atoms: _232  and  _233
REMARK   96  A    between atoms: _233  and  _234
REMARK   97  A    between atoms: _234  and  _235
REMARK   98  A    between atoms: _244  and  _246
REMARK   99  A    between atoms: _246  and  _247
REMARK  100  A    between atoms: _246  and  _249
REMARK  101  A    between atoms: _249  and  _250
REMARK  102  A    between atoms: _255  and  _257
REMARK  103  A    between atoms: _257  and  _258
REMARK  104  A    between atoms: _257  and  _260
REMARK  105  A    between atoms: _260  and  _261
REMARK  106  A    between atoms: _261  and  _262
REMARK  107  A    between atoms: _262  and  _263
REMARK  108  A    between atoms: _272  and  _274
REMARK  109  A    between atoms: _274  and  _275
REMARK  110  A    between atoms: _274  and  _277
REMARK  111  A    between atoms: _277  and  _278
REMARK  112  A    between atoms: _282  and  _283
REMARK  113  A    between atoms: _288  and  _290
REMARK  114  A    between atoms: _290  and  _291
REMARK  115  A    between atoms: _290  and  _293
REMARK  116  A    between atoms: _293  and  _294
REMARK  117  A    between atoms: _294  and  _295
REMARK  118  A    between atoms: _298  and  _300
REMARK  119  A    between atoms: _300  and  _301
REMARK  120  A    between atoms: _300  and  _303
REMARK  121  A    between atoms: _303  and  _304
REMARK  122  A    between atoms: _304  and  _305
REMARK  123  A    between atoms: _308  and  _310
REMARK  124  A    between atoms: _310  and  _311
REMARK  125  A    between atoms: _310  and  _313
REMARK  126  A    between atoms: _313  and  _314
REMARK  127  A    between atoms: _319  and  _321
REMARK  128  A    between atoms: _321  and  _322
REMARK  129  A    between atoms: _321  and  _324
REMARK  130  A    between atoms: _324  and  _325
REMARK  131  A    between atoms: _328  and  _330
REMARK  132  A    between atoms: _330  and  _331
REMARK  133  A    between atoms: _330  and  _333
REMARK  134  A    between atoms: _333  and  _334
REMARK  135  A    between atoms: _344  and  _346
REMARK  136  A    between atoms: _346  and  _347
REMARK  137  A    between atoms: _346  and  _349
REMARK  138  A    between atoms: _349  and  _350
REMARK  139  A    between atoms: _350  and  _351
REMARK  140  A    between atoms: _353  and  _355
REMARK  141  A    between atoms: _355  and  _356
REMARK  142  A    between atoms: _355  and  _358
REMARK  143  A    between atoms: _358  and  _359
REMARK  144  A    between atoms: _359  and  _360
REMARK  145  A    between atoms: _360  and  _361
REMARK  146  A    between atoms: _361  and  _362
REMARK  147  A    between atoms: _366  and  _368
REMARK  148  A    between atoms: _368  and  _369
REMARK  149  A    between atoms: _372  and  _374
REMARK  150  A    between atoms: _374  and  _375
REMARK  151  A    between atoms: _374  and  _377
REMARK  152  A    between atoms: _377  and  _378
REMARK  153  A    between atoms: _378  and  _379
REMARK  154  A    between atoms: _379  and  _380
REMARK  155  A    between atoms: _389  and  _391
REMARK  156  A    between atoms: _391  and  _392
REMARK  157  A    between atoms: _391  and  _394
REMARK  158  A    between atoms: _394  and  _395
REMARK  159  A    between atoms: _398  and  _400
REMARK  160  A    between atoms: _400  and  _401
REMARK  161  A    between atoms: _400  and  _403
REMARK  162  A    between atoms: _403  and  _404
REMARK  163  A    between atoms: _414  and  _416
REMARK  164  A    between atoms: _416  and  _417
REMARK  165  A    between atoms: _416  and  _419
REMARK  166  A    between atoms: _419  and  _420
REMARK  167  A    between atoms: _426  and  _428
REMARK  168  A    between atoms: _428  and  _429
REMARK  169  A    between atoms: _432  and  _434
REMARK  170  A    between atoms: _434  and  _435
REMARK  171  A    between atoms: _434  and  _437
REMARK  172  A    between atoms: _437  and  _438
REMARK  173  A    between atoms: _440  and  _442
REMARK  174  A    between atoms: _442  and  _443
REMARK  175  A    between atoms: _442  and  _445
REMARK  176  A    between atoms: _445  and  _446
REMARK  177  A    between atoms: _449  and  _451
REMARK  178  A    between atoms: _451  and  _452
REMARK  179  A    between atoms: _455  and  _457
REMARK  180  A    between atoms: _457  and  _458
REMARK  181  A    between atoms: _457  and  _460
REMARK  182  A    between atoms: _460  and  _461
REMARK  183  A    between atoms: _464  and  _466
REMARK  184  A    between atoms: _466  and  _467
REMARK  185  A    between atoms: _466  and  _469
REMARK  186  A    between atoms: _469  and  _470
REMARK  187  A    between atoms: _473  and  _475
REMARK  188  A    between atoms: _475  and  _476
REMARK  189  A    between atoms: _475  and  _478
REMARK  190  A    between atoms: _478  and  _479
REMARK  191  A    between atoms: _479  and  _480
REMARK  192  A    between atoms: _480  and  _481
REMARK  193  A    between atoms: _490  and  _492
REMARK  194  A    between atoms: _492  and  _493
REMARK  195  A    between atoms: _492  and  _495
REMARK  196  A    between atoms: _495  and  _496
REMARK  197  A    between atoms: _496  and  _497
REMARK  198  A    between atoms: _502  and  _504
REMARK  199  A    between atoms: _504  and  _505
REMARK  200  A    between atoms: _504  and  _507
REMARK  201  A    between atoms: _507  and  _508
REMARK  202  A    between atoms: _508  and  _509
REMARK  203  A    between atoms: _509  and  _510
REMARK  204  A    between atoms: _520  and  _521
REMARK  205  A    between atoms: _526  and  _528
REMARK  206  A    between atoms: _528  and  _529
REMARK  207  A    between atoms: _528  and  _531
REMARK  208  A    between atoms: _531  and  _532
REMARK  209  A    between atoms: _535  and  _537
REMARK  210  A    between atoms: _537  and  _538
REMARK  211  A    between atoms: _537  and  _540
REMARK  212  A    between atoms: _540  and  _541
REMARK  213  A    between atoms: _547  and  _548
REMARK  214  A    between atoms: _553  and  _555
REMARK  215  A    between atoms: _555  and  _556
REMARK  216  A    between atoms: _555  and  _558
REMARK  217  A    between atoms: _561  and  _563
REMARK  218  A    between atoms: _563  and  _564
REMARK  219  A    between atoms: _563  and  _566
REMARK  220  A    between atoms: _566  and  _567
REMARK  221  A    between atoms: _572  and  _574
REMARK  222  A    between atoms: _574  and  _575
REMARK  223  A    between atoms: _574  and  _577
REMARK  224  A    between atoms: _577  and  _578
REMARK  225  A    between atoms: _583  and  _585
REMARK  226  A    between atoms: _585  and  _586
REMARK  227  A    between atoms: _585  and  _588
REMARK  228  A    between atoms: _588  and  _589
REMARK  229  A    between atoms: _589  and  _590
REMARK  230  A    between atoms: _592  and  _594
REMARK  231  A    between atoms: _594  and  _595
REMARK  232  A    between atoms: _594  and  _597
REMARK  233  A    between atoms: _597  and  _598
REMARK  234  A    between atoms: _603  and  _604
REMARK  235  A    between atoms: _606  and  _608
REMARK  236  A    between atoms: _608  and  _609
REMARK  237  A    between atoms: _608  and  _611
REMARK  238  A    between atoms: _611  and  _612
REMARK  239  A    between atoms: _612  and  _613
REMARK  240  A    between atoms: _618  and  _620
REMARK  241  A    between atoms: _620  and  _621
REMARK  242  A    between atoms: _620  and  _623
REMARK  243  A    between atoms: _623  and  _624
REMARK  244  A    between atoms: _628  and  _629
REMARK  245  A    between atoms: _634  and  _636
REMARK  246  A    between atoms: _636  and  _637
REMARK  247  A    between atoms: _636  and  _639
REMARK  248  A    between atoms: _639  and  _640
REMARK  249  A    between atoms: _646  and  _648
REMARK  250  A    between atoms: _648  and  _649
REMARK  251  A    between atoms: _648  and  _651
REMARK  252  A    between atoms: _651  and  _652
REMARK  253  A    between atoms: _652  and  _653
REMARK  254  A    between atoms: _658  and  _660
REMARK  255  A    between atoms: _660  and  _661
REMARK  256  A    between atoms: _660  and  _663
REMARK  257  A    between atoms: _663  and  _664
REMARK  258  A    between atoms: _667  and  _669
REMARK  259  A    between atoms: _669  and  _670
REMARK  260  A    between atoms: _669  and  _672
REMARK  261  A    between atoms: _672  and  _673
REMARK  262  A    between atoms: _678  and  _679
REMARK  263  A    between atoms: _681  and  _683
REMARK  264  A    between atoms: _683  and  _684
REMARK  265  A    between atoms: _683  and  _686
REMARK  266  A    between atoms: _686  and  _687
REMARK  267  A    between atoms: _692  and  _693
REMARK  268  A    between atoms: _695  and  _697
REMARK  269  A    between atoms: _697  and  _698
REMARK  270  A    between atoms: _697  and  _700
REMARK  271  A    between atoms: _700  and  _701
REMARK  272  A    between atoms: _701  and  _702
REMARK  273  A    between atoms: _705  and  _707
REMARK  274  A    between atoms: _707  and  _708
REMARK  275  A    between atoms: _707  and  _710
REMARK  276  A    between atoms: _710  and  _711
REMARK  277  A    between atoms: _711  and  _712
REMARK  278  A    between atoms: _712  and  _713
REMARK  279  A    between atoms: _722  and  _724
REMARK  280  A    between atoms: _724  and  _725
REMARK  281  A    between atoms: _724  and  _727
REMARK  282  A    between atoms: _727  and  _728
REMARK  283  A    between atoms: _738  and  _740
REMARK  284  A    between atoms: _740  and  _741
REMARK  285  A    between atoms: _740  and  _743
REMARK  286  A    between atoms: _743  and  _744
REMARK  287  A    between atoms: _747  and  _749
REMARK  288  A    between atoms: _749  and  _750
REMARK  289  A    between atoms: _753  and  _755
REMARK  290  A    between atoms: _755  and  _756
REMARK  291  A    between atoms: _755  and  _758
REMARK  292  A    between atoms: _758  and  _759
REMARK  293  A    between atoms: _762  and  _764
REMARK  294  A    between atoms: _764  and  _765
REMARK  295  A    between atoms: _764  and  _767
REMARK  296  A    between atoms: _767  and  _768
REMARK  297  A    between atoms: _768  and  _769
REMARK  298  A    between atoms: _769  and  _770
REMARK  299  A    between atoms: _770  and  _771
REMARK  300  A    between atoms: _775  and  _777
REMARK  301  A    between atoms: _777  and  _778
REMARK  302  A    between atoms: _777  and  _780
REMARK  303  A    between atoms: _780  and  _781
REMARK                            x       y       z     vdW  Elec       q    Type
REMARK                         _______ _______ _______ _____ _____    ______ ____
ROOT
ATOM      1  O   HOH     1     -18.774  -8.929  -5.602  0.00  0.00    +0.000 OA
ENDROOT
TORSDOF 0
REMARK  Name = ../refined-set-2016/1y3p/1y3p_pocket.pdb
REMARK  303 active torsions:
REMARK  status: ('A' for Active; 'I' for Inactive)
REMARK    1  A    between atoms: _1  and  _3
REMARK    2  A    between atoms: _3  and  _4
REMARK    3  A    between atoms: _3  and  _6
REMARK    4  A    between atoms: _6  and  _7
REMARK    5  A    between atoms: _12  and  _14
REMARK    6  A    between atoms: _14  and  _15
REMARK    7  A    between atoms: _14  and  _17
REMARK    8  A    between atoms: _17  and  _18
REMARK    9  A    between atoms: _24  and  _26
REMARK   10  A    between atoms: _26  and  _27
REMARK   11  A    between atoms: _26  and  _29
REMARK   12  A    between atoms: _29  and  _30
REMARK   13  A    between atoms: _30  and  _31
REMARK   14  A    between atoms: _31  and  _32
REMARK   15  A    between atoms: _41  and  _43
REMARK   16  A    between atoms: _43  and  _44
REMARK   17  A    between atoms: _43  and  _46
REMARK   18  A    between atoms: _46  and  _47
REMARK   19  A    between atoms: _50  and  _52
REMARK   20  A    between atoms: _52  and  _53
REMARK   21  A    between atoms: _52  and  _55
REMARK   22  A    between atoms: _55  and  _56
REMARK   23  A    between atoms: _56  and  _57
REMARK   24  A    between atoms: _57  and  _58
REMARK   25  A    between atoms: _58  and  _59
REMARK   26  A    between atoms: _63  and  _65
REMARK   27  A    between atoms: _65  and  _66
REMARK   28  A    between atoms: _65  and  _68
REMARK   29  A    between atoms: _68  and  _69
REMARK   30  A    between atoms: _79  and  _81
REMARK   31  A    between atoms: _81  and  _82
REMARK   32  A    between atoms: _81  and  _84
REMARK   33  A    between atoms: _84  and  _85
REMARK   34  A    between atoms: _88  and  _90
REMARK   35  A    between atoms: _90  and  _91
REMARK   36  A    between atoms: _90  and  _93
REMARK   37  A    between atoms: _93  and  _94
REMARK   38  A    between atoms: _99  and  _101
REMARK   39  A    between atoms: _101  and  _102
REMARK   40  A    between atoms: _101  and  _104
REMARK   41  A    between atoms: _104  and  _105
REMARK   42  A    between atoms: _107  and  _109
REMARK   43  A    between atoms: _109  and  _110
REMARK   44  A    between atoms: _109  and  _112
REMARK   45  A    between atoms: _112  and  _113
REMARK   46  A    between atoms: _113  and  _114
REMARK   47  A    between atoms: _119  and  _121
REMARK   48  A    between atoms: _121  and  _122
REMARK   49  A    between atoms: _121  and  _124
REMARK   50  A    between atoms: _124  and  _125
REMARK   51  A    between atoms: _125  and  _126
REMARK   52  A    between atoms: _129  and  _131
REMARK   53  A    between atoms: _131  and  _132
REMARK   54  A    between atoms: _134  and  _136
REMARK   55  A    between atoms: _136  and  _137
REMARK   56  A    between atoms: _136  and  _139
REMARK   57  A    between atoms: _139  and  _140
REMARK   58  A    between atoms: _143  and  _145
REMARK   59  A    between atoms: _145  and  _146
REMARK   60  A    between atoms: _145  and  _148
REMARK   61  A    between atoms: _148  and  _149
REMARK   62  A    between atoms: _154  and  _156
REMARK   63  A    between atoms: _156  and  _157
REMARK   64  A    between atoms: _156  and  _159
REMARK   65  A    between atoms: _159  and  _160
REMARK   66  A    between atoms: _163  and  _165
REMARK   67  A    between atoms: _165  and  _166
REMARK   68  A    between atoms: _165  and  _168
REMARK   69  A    between atoms: _168  and  _169
REMARK   70  A    between atoms: _169  and  _170
REMARK   71  A    between atoms: _170  and  _171
REMARK   72  A    between atoms: _171  and  _172
REMARK   73  A    between atoms: _176  and  _178
REMARK   74  A    between atoms: _178  and  _179
REMARK   75  A    between atoms: _178  and  _181
REMARK   76  A    between atoms: _181  and  _182
REMARK   77  A    between atoms: _187  and  _188
REMARK   78  A    between atoms: _191  and  _192
REMARK   79  A    between atoms: _197  and  _199
REMARK   80  A    between atoms: _199  and  _200
REMARK   81  A    between atoms: _199  and  _202
REMARK   82  A    between atoms: _202  and  _203
REMARK   83  A    between atoms: _206  and  _208
REMARK   84  A    between atoms: _208  and  _209
REMARK   85  A    between atoms: _211  and  _213
REMARK   86  A    between atoms: _213  and  _214
REMARK   87  A    between atoms: _213  and  _216
REMARK   88  A    between atoms: _219  and  _221
REMARK   89  A    between atoms: _221  and  _222
REMARK   90  A    between atoms: _221  and  _224
REMARK   91  A    between atoms: _224  and  _225
REMARK   92  A    between atoms: _227  and  _229
REMARK   93  A    between atoms: _229  and  _230
REMARK   94  A    between atoms: _229  and  _232
REMARK   95  A    between atoms: _232  and  _233
REMARK   96  A    between atoms: _233  and  _234
REMARK   97  A    between atoms: _234  and  _235
REMARK   98  A    between atoms: _244  and  _246
REMARK   99  A    between atoms: _246  and  _247
REMARK  100  A    between atoms: _246  and  _249
REMARK  101  A    between atoms: _249  and  _250
REMARK  102  A    between atoms: _255  and  _257
REMARK  103  A    between atoms: _257  and  _258
REMARK  104  A    between atoms: _257  and  _260
REMARK  105  A    between atoms: _260  and  _261
REMARK  106  A    between atoms: _261  and  _262
REMARK  107  A    between atoms: _262  and  _263
REMARK  108  A    between atoms: _272  and  _274
REMARK  109  A    between atoms: _274  and  _275
REMARK  110  A    between atoms: _274  and  _277
REMARK  111  A    between atoms: _277  and  _278
REMARK  112  A    between atoms: _282  and  _283
REMARK  113  A    between atoms: _288  and  _290
REMARK  114  A    between atoms: _290  and  _291
REMARK  115  A    between atoms: _290  and  _293
REMARK  116  A    between atoms: _293  and  _294
REMARK  117  A    between atoms: _294  and  _295
REMARK  118  A    between atoms: _298  and  _300
REMARK  119  A    between atoms: _300  and  _301
REMARK  120  A    between atoms: _300  and  _303
REMARK  121  A    between atoms: _303  and  _304
REMARK  122  A    between atoms: _304  and  _305
REMARK  123  A    between atoms: _308  and  _310
REMARK  124  A    between atoms: _310  and  _311
REMARK  125  A    between atoms: _310  and  _313
REMARK  126  A    between atoms: _313  and  _314
REMARK  127  A    between atoms: _319  and  _321
REMARK  128  A    between atoms: _321  and  _322
REMARK  129  A    between atoms: _321  and  _324
REMARK  130  A    between atoms: _324  and  _325
REMARK  131  A    between atoms: _328  and  _330
REMARK  132  A    between atoms: _330  and  _331
REMARK  133  A    between atoms: _330  and  _333
REMARK  134  A    between atoms: _333  and  _334
REMARK  135  A    between atoms: _344  and  _346
REMARK  136  A    between atoms: _346  and  _347
REMARK  137  A    between atoms: _346  and  _349
REMARK  138  A    between atoms: _349  and  _350
REMARK  139  A    between atoms: _350  and  _351
REMARK  140  A    between atoms: _353  and  _355
REMARK  141  A    between atoms: _355  and  _356
REMARK  142  A    between atoms: _355  and  _358
REMARK  143  A    between atoms: _358  and  _359
REMARK  144  A    between atoms: _359  and  _360
REMARK  145  A    between atoms: _360  and  _361
REMARK  146  A    between atoms: _361  and  _362
REMARK  147  A    between atoms: _366  and  _368
REMARK  148  A    between atoms: _368  and  _369
REMARK  149  A    between atoms: _372  and  _374
REMARK  150  A    between atoms: _374  and  _375
REMARK  151  A    between atoms: _374  and  _377
REMARK  152  A    between atoms: _377  and  _378
REMARK  153  A    between atoms: _378  and  _379
REMARK  154  A    between atoms: _379  and  _380
REMARK  155  A    between atoms: _389  and  _391
REMARK  156  A    between atoms: _391  and  _392
REMARK  157  A    between atoms: _391  and  _394
REMARK  158  A    between atoms: _394  and  _395
REMARK  159  A    between atoms: _398  and  _400
REMARK  160  A    between atoms: _400  and  _401
REMARK  161  A    between atoms: _400  and  _403
REMARK  162  A    between atoms: _403  and  _404
REMARK  163  A    between atoms: _414  and  _416
REMARK  164  A    between atoms: _416  and  _417
REMARK  165  A    between atoms: _416  and  _419
REMARK  166  A    between atoms: _419  and  _420
REMARK  167  A    between atoms: _426  and  _428
REMARK  168  A    between atoms: _428  and  _429
REMARK  169  A    between atoms: _432  and  _434
REMARK  170  A    between atoms: _434  and  _435
REMARK  171  A    between atoms: _434  and  _437
REMARK  172  A    between atoms: _437  and  _438
REMARK  173  A    between atoms: _440  and  _442
REMARK  174  A    between atoms: _442  and  _443
REMARK  175  A    between atoms: _442  and  _445
REMARK  176  A    between atoms: _445  and  _446
REMARK  177  A    between atoms: _449  and  _451
REMARK  178  A    between atoms: _451  and  _452
REMARK  179  A    between atoms: _455  and  _457
REMARK  180  A    between atoms: _457  and  _458
REMARK  181  A    between atoms: _457  and  _460
REMARK  182  A    between atoms: _460  and  _461
REMARK  183  A    between atoms: _464  and  _466
REMARK  184  A    between atoms: _466  and  _467
REMARK  185  A    between atoms: _466  and  _469
REMARK  186  A    between atoms: _469  and  _470
REMARK  187  A    between atoms: _473  and  _475
REMARK  188  A    between atoms: _475  and  _476
REMARK  189  A    between atoms: _475  and  _478
REMARK  190  A    between atoms: _478  and  _479
REMARK  191  A    between atoms: _479  and  _480
REMARK  192  A    between atoms: _480  and  _481
REMARK  193  A    between atoms: _490  and  _492
REMARK  194  A    between atoms: _492  and  _493
REMARK  195  A    between atoms: _492  and  _495
REMARK  196  A    between atoms: _495  and  _496
REMARK  197  A    between atoms: _496  and  _497
REMARK  198  A    between atoms: _502  and  _504
REMARK  199  A    between atoms: _504  and  _505
REMARK  200  A    between atoms: _504  and  _507
REMARK  201  A    between atoms: _507  and  _508
REMARK  202  A    between atoms: _508  and  _509
REMARK  203  A    between atoms: _509  and  _510
REMARK  204  A    between atoms: _520  and  _521
REMARK  205  A    between atoms: _526  and  _528
REMARK  206  A    between atoms: _528  and  _529
REMARK  207  A    between atoms: _528  and  _531
REMARK  208  A    between atoms: _531  and  _532
REMARK  209  A    between atoms: _535  and  _537
REMARK  210  A    between atoms: _537  and  _538
REMARK  211  A    between atoms: _537  and  _540
REMARK  212  A    between atoms: _540  and  _541
REMARK  213  A    between atoms: _547  and  _548
REMARK  214  A    between atoms: _553  and  _555
REMARK  215  A    between atoms: _555  and  _556
REMARK  216  A    between atoms: _555  and  _558
REMARK  217  A    between atoms: _561  and  _563
REMARK  218  A    between atoms: _563  and  _564
REMARK  219  A    between atoms: _563  and  _566
REMARK  220  A    between atoms: _566  and  _567
REMARK  221  A    between atoms: _572  and  _574
REMARK  222  A    between atoms: _574  and  _575
REMARK  223  A    between atoms: _574  and  _577
REMARK  224  A    between atoms: _577  and  _578
REMARK  225  A    between atoms: _583  and  _585
REMARK  226  A    between atoms: _585  and  _586
REMARK  227  A    between atoms: _585  and  _588
REMARK  228  A    between atoms: _588  and  _589
REMARK  229  A    between atoms: _589  and  _590
REMARK  230  A    between atoms: _592  and  _594
REMARK  231  A    between atoms: _594  and  _595
REMARK  232  A    between atoms: _594  and  _597
REMARK  233  A    between atoms: _597  and  _598
REMARK  234  A    between atoms: _603  and  _604
REMARK  235  A    between atoms: _606  and  _608
REMARK  236  A    between atoms: _608  and  _609
REMARK  237  A    between atoms: _608  and  _611
REMARK  238  A    between atoms: _611  and  _612
REMARK  239  A    between atoms: _612  and  _613
REMARK  240  A    between atoms: _618  and  _620
REMARK  241  A    between atoms: _620  and  _621
REMARK  242  A    between atoms: _620  and  _623
REMARK  243  A    between atoms: _623  and  _624
REMARK  244  A    between atoms: _628  and  _629
REMARK  245  A    between atoms: _634  and  _636
REMARK  246  A    between atoms: _636  and  _637
REMARK  247  A    between atoms: _636  and  _639
REMARK  248  A    between atoms: _639  and  _640
REMARK  249  A    between atoms: _646  and  _648
REMARK  250  A    between atoms: _648  and  _649
REMARK  251  A    between atoms: _648  and  _651
REMARK  252  A    between atoms: _651  and  _652
REMARK  253  A    between atoms: _652  and  _653
REMARK  254  A    between atoms: _658  and  _660
REMARK  255  A    between atoms: _660  and  _661
REMARK  256  A    between atoms: _660  and  _663
REMARK  257  A    between atoms: _663  and  _664
REMARK  258  A    between atoms: _667  and  _669
REMARK  259  A    between atoms: _669  and  _670
REMARK  260  A    between atoms: _669  and  _672
REMARK  261  A    between atoms: _672  and  _673
REMARK  262  A    between atoms: _678  and  _679
REMARK  263  A    between atoms: _681  and  _683
REMARK  264  A    between atoms: _683  and  _684
REMARK  265  A    between atoms: _683  and  _686
REMARK  266  A    between atoms: _686  and  _687
REMARK  267  A    between atoms: _692  and  _693
REMARK  268  A    between atoms: _695  and  _697
REMARK  269  A    between atoms: _697  and  _698
REMARK  270  A    between atoms: _697  and  _700
REMARK  271  A    between atoms: _700  and  _701
REMARK  272  A    between atoms: _701  and  _702
REMARK  273  A    between atoms: _705  and  _707
REMARK  274  A    between atoms: _707  and  _708
REMARK  275  A    between atoms: _707  and  _710
REMARK  276  A    between atoms: _710  and  _711
REMARK  277  A    between atoms: _711  and  _712
REMARK  278  A    between atoms: _712  and  _713
REMARK  279  A    between atoms: _722  and  _724
REMARK  280  A    between atoms: _724  and  _725
REMARK  281  A    between atoms: _724  and  _727
REMARK  282  A    between atoms: _727  and  _728
REMARK  283  A    between atoms: _738  and  _740
REMARK  284  A    between atoms: _740  and  _741
REMARK  285  A    between atoms: _740  and  _743
REMARK  286  A    between atoms: _743  and  _744
REMARK  287  A    between atoms: _747  and  _749
REMARK  288  A    between atoms: _749  and  _750
REMARK  289  A    between atoms: _753  and  _755
REMARK  290  A    between atoms: _755  and  _756
REMARK  291  A    between atoms: _755  and  _758
REMARK  292  A    between atoms: _758  and  _759
REMARK  293  A    between atoms: _762  and  _764
REMARK  294  A    between atoms: _764  and  _765
REMARK  295  A    between atoms: _764  and  _767
REMARK  296  A    between atoms: _767  and  _768
REMARK  297  A    between atoms: _768  and  _769
REMARK  298  A    between atoms: _769  and  _770
REMARK  299  A    between atoms: _770  and  _771
REMARK  300  A    between atoms: _775  and  _777
REMARK  301  A    between atoms: _777  and  _778
REMARK  302  A    between atoms: _777  and  _780
REMARK  303  A    between atoms: _780  and  _781
REMARK                            x       y       z     vdW  Elec       q    Type
REMARK                         _______ _______ _______ _____ _____    ______ ____
ROOT
ATOM      1  O   HOH     1     -16.387   0.195  -4.063  0.00  0.00    +0.000 OA
ENDROOT
TORSDOF 0
REMARK  Name = ../refined-set-2016/1y3p/1y3p_pocket.pdb
REMARK  303 active torsions:
REMARK  status: ('A' for Active; 'I' for Inactive)
REMARK    1  A    between atoms: _1  and  _3
REMARK    2  A    between atoms: _3  and  _4
REMARK    3  A    between atoms: _3  and  _6
REMARK    4  A    between atoms: _6  and  _7
REMARK    5  A    between atoms: _12  and  _14
REMARK    6  A    between atoms: _14  and  _15
REMARK    7  A    between atoms: _14  and  _17
REMARK    8  A    between atoms: _17  and  _18
REMARK    9  A    between atoms: _24  and  _26
REMARK   10  A    between atoms: _26  and  _27
REMARK   11  A    between atoms: _26  and  _29
REMARK   12  A    between atoms: _29  and  _30
REMARK   13  A    between atoms: _30  and  _31
REMARK   14  A    between atoms: _31  and  _32
REMARK   15  A    between atoms: _41  and  _43
REMARK   16  A    between atoms: _43  and  _44
REMARK   17  A    between atoms: _43  and  _46
REMARK   18  A    between atoms: _46  and  _47
REMARK   19  A    between atoms: _50  and  _52
REMARK   20  A    between atoms: _52  and  _53
REMARK   21  A    between atoms: _52  and  _55
REMARK   22  A    between atoms: _55  and  _56
REMARK   23  A    between atoms: _56  and  _57
REMARK   24  A    between atoms: _57  and  _58
REMARK   25  A    between atoms: _58  and  _59
REMARK   26  A    between atoms: _63  and  _65
REMARK   27  A    between atoms: _65  and  _66
REMARK   28  A    between atoms: _65  and  _68
REMARK   29  A    between atoms: _68  and  _69
REMARK   30  A    between atoms: _79  and  _81
REMARK   31  A    between atoms: _81  and  _82
REMARK   32  A    between atoms: _81  and  _84
REMARK   33  A    between atoms: _84  and  _85
REMARK   34  A    between atoms: _88  and  _90
REMARK   35  A    between atoms: _90  and  _91
REMARK   36  A    between atoms: _90  and  _93
REMARK   37  A    between atoms: _93  and  _94
REMARK   38  A    between atoms: _99  and  _101
REMARK   39  A    between atoms: _101  and  _102
REMARK   40  A    between atoms: _101  and  _104
REMARK   41  A    between atoms: _104  and  _105
REMARK   42  A    between atoms: _107  and  _109
REMARK   43  A    between atoms: _109  and  _110
REMARK   44  A    between atoms: _109  and  _112
REMARK   45  A    between atoms: _112  and  _113
REMARK   46  A    between atoms: _113  and  _114
REMARK   47  A    between atoms: _119  and  _121
REMARK   48  A    between atoms: _121  and  _122
REMARK   49  A    between atoms: _121  and  _124
REMARK   50  A    between atoms: _124  and  _125
REMARK   51  A    between atoms: _125  and  _126
REMARK   52  A    between atoms: _129  and  _131
REMARK   53  A    between atoms: _131  and  _132
REMARK   54  A    between atoms: _134  and  _136
REMARK   55  A    between atoms: _136  and  _137
REMARK   56  A    between atoms: _136  and  _139
REMARK   57  A    between atoms: _139  and  _140
REMARK   58  A    between atoms: _143  and  _145
REMARK   59  A    between atoms: _145  and  _146
REMARK   60  A    between atoms: _145  and  _148
REMARK   61  A    between atoms: _148  and  _149
REMARK   62  A    between atoms: _154  and  _156
REMARK   63  A    between atoms: _156  and  _157
REMARK   64  A    between atoms: _156  and  _159
REMARK   65  A    between atoms: _159  and  _160
REMARK   66  A    between atoms: _163  and  _165
REMARK   67  A    between atoms: _165  and  _166
REMARK   68  A    between atoms: _165  and  _168
REMARK   69  A    between atoms: _168  and  _169
REMARK   70  A    between atoms: _169  and  _170
REMARK   71  A    between atoms: _170  and  _171
REMARK   72  A    between atoms: _171  and  _172
REMARK   73  A    between atoms: _176  and  _178
REMARK   74  A    between atoms: _178  and  _179
REMARK   75  A    between atoms: _178  and  _181
REMARK   76  A    between atoms: _181  and  _182
REMARK   77  A    between atoms: _187  and  _188
REMARK   78  A    between atoms: _191  and  _192
REMARK   79  A    between atoms: _197  and  _199
REMARK   80  A    between atoms: _199  and  _200
REMARK   81  A    between atoms: _199  and  _202
REMARK   82  A    between atoms: _202  and  _203
REMARK   83  A    between atoms: _206  and  _208
REMARK   84  A    between atoms: _208  and  _209
REMARK   85  A    between atoms: _211  and  _213
REMARK   86  A    between atoms: _213  and  _214
REMARK   87  A    between atoms: _213  and  _216
REMARK   88  A    between atoms: _219  and  _221
REMARK   89  A    between atoms: _221  and  _222
REMARK   90  A    between atoms: _221  and  _224
REMARK   91  A    between atoms: _224  and  _225
REMARK   92  A    between atoms: _227  and  _229
REMARK   93  A    between atoms: _229  and  _230
REMARK   94  A    between atoms: _229  and  _232
REMARK   95  A    between atoms: _232  and  _233
REMARK   96  A    between atoms: _233  and  _234
REMARK   97  A    between atoms: _234  and  _235
REMARK   98  A    between atoms: _244  and  _246
REMARK   99  A    between atoms: _246  and  _247
REMARK  100  A    between atoms: _246  and  _249
REMARK  101  A    between atoms: _249  and  _250
REMARK  102  A    between atoms: _255  and  _257
REMARK  103  A    between atoms: _257  and  _258
REMARK  104  A    between atoms: _257  and  _260
REMARK  105  A    between atoms: _260  and  _261
REMARK  106  A    between atoms: _261  and  _262
REMARK  107  A    between atoms: _262  and  _263
REMARK  108  A    between atoms: _272  and  _274
REMARK  109  A    between atoms: _274  and  _275
REMARK  110  A    between atoms: _274  and  _277
REMARK  111  A    between atoms: _277  and  _278
REMARK  112  A    between atoms: _282  and  _283
REMARK  113  A    between atoms: _288  and  _290
REMARK  114  A    between atoms: _290  and  _291
REMARK  115  A    between atoms: _290  and  _293
REMARK  116  A    between atoms: _293  and  _294
REMARK  117  A    between atoms: _294  and  _295
REMARK  118  A    between atoms: _298  and  _300
REMARK  119  A    between atoms: _300  and  _301
REMARK  120  A    between atoms: _300  and  _303
REMARK  121  A    between atoms: _303  and  _304
REMARK  122  A    between atoms: _304  and  _305
REMARK  123  A    between atoms: _308  and  _310
REMARK  124  A    between atoms: _310  and  _311
REMARK  125  A    between atoms: _310  and  _313
REMARK  126  A    between atoms: _313  and  _314
REMARK  127  A    between atoms: _319  and  _321
REMARK  128  A    between atoms: _321  and  _322
REMARK  129  A    between atoms: _321  and  _324
REMARK  130  A    between atoms: _324  and  _325
REMARK  131  A    between atoms: _328  and  _330
REMARK  132  A    between atoms: _330  and  _331
REMARK  133  A    between atoms: _330  and  _333
REMARK  134  A    between atoms: _333  and  _334
REMARK  135  A    between atoms: _344  and  _346
REMARK  136  A    between atoms: _346  and  _347
REMARK  137  A    between atoms: _346  and  _349
REMARK  138  A    between atoms: _349  and  _350
REMARK  139  A    between atoms: _350  and  _351
REMARK  140  A    between atoms: _353  and  _355
REMARK  141  A    between atoms: _355  and  _356
REMARK  142  A    between atoms: _355  and  _358
REMARK  143  A    between atoms: _358  and  _359
REMARK  144  A    between atoms: _359  and  _360
REMARK  145  A    between atoms: _360  and  _361
REMARK  146  A    between atoms: _361  and  _362
REMARK  147  A    between atoms: _366  and  _368
REMARK  148  A    between atoms: _368  and  _369
REMARK  149  A    between atoms: _372  and  _374
REMARK  150  A    between atoms: _374  and  _375
REMARK  151  A    between atoms: _374  and  _377
REMARK  152  A    between atoms: _377  and  _378
REMARK  153  A    between atoms: _378  and  _379
REMARK  154  A    between atoms: _379  and  _380
REMARK  155  A    between atoms: _389  and  _391
REMARK  156  A    between atoms: _391  and  _392
REMARK  157  A    between atoms: _391  and  _394
REMARK  158  A    between atoms: _394  and  _395
REMARK  159  A    between atoms: _398  and  _400
REMARK  160  A    between atoms: _400  and  _401
REMARK  161  A    between atoms: _400  and  _403
REMARK  162  A    between atoms: _403  and  _404
REMARK  163  A    between atoms: _414  and  _416
REMARK  164  A    between atoms: _416  and  _417
REMARK  165  A    between atoms: _416  and  _419
REMARK  166  A    between atoms: _419  and  _420
REMARK  167  A    between atoms: _426  and  _428
REMARK  168  A    between atoms: _428  and  _429
REMARK  169  A    between atoms: _432  and  _434
REMARK  170  A    between atoms: _434  and  _435
REMARK  171  A    between atoms: _434  and  _437
REMARK  172  A    between atoms: _437  and  _438
REMARK  173  A    between atoms: _440  and  _442
REMARK  174  A    between atoms: _442  and  _443
REMARK  175  A    between atoms: _442  and  _445
REMARK  176  A    between atoms: _445  and  _446
REMARK  177  A    between atoms: _449  and  _451
REMARK  178  A    between atoms: _451  and  _452
REMARK  179  A    between atoms: _455  and  _457
REMARK  180  A    between atoms: _457  and  _458
REMARK  181  A    between atoms: _457  and  _460
REMARK  182  A    between atoms: _460  and  _461
REMARK  183  A    between atoms: _464  and  _466
REMARK  184  A    between atoms: _466  and  _467
REMARK  185  A    between atoms: _466  and  _469
REMARK  186  A    between atoms: _469  and  _470
REMARK  187  A    between atoms: _473  and  _475
REMARK  188  A    between atoms: _475  and  _476
REMARK  189  A    between atoms: _475  and  _478
REMARK  190  A    between atoms: _478  and  _479
REMARK  191  A    between atoms: _479  and  _480
REMARK  192  A    between atoms: _480  and  _481
REMARK  193  A    between atoms: _490  and  _492
REMARK  194  A    between atoms: _492  and  _493
REMARK  195  A    between atoms: _492  and  _495
REMARK  196  A    between atoms: _495  and  _496
REMARK  197  A    between atoms: _496  and  _497
REMARK  198  A    between atoms: _502  and  _504
REMARK  199  A    between atoms: _504  and  _505
REMARK  200  A    between atoms: _504  and  _507
REMARK  201  A    between atoms: _507  and  _508
REMARK  202  A    between atoms: _508  and  _509
REMARK  203  A    between atoms: _509  and  _510
REMARK  204  A    between atoms: _520  and  _521
REMARK  205  A    between atoms: _526  and  _528
REMARK  206  A    between atoms: _528  and  _529
REMARK  207  A    between atoms: _528  and  _531
REMARK  208  A    between atoms: _531  and  _532
REMARK  209  A    between atoms: _535  and  _537
REMARK  210  A    between atoms: _537  and  _538
REMARK  211  A    between atoms: _537  and  _540
REMARK  212  A    between atoms: _540  and  _541
REMARK  213  A    between atoms: _547  and  _548
REMARK  214  A    between atoms: _553  and  _555
REMARK  215  A    between atoms: _555  and  _556
REMARK  216  A    between atoms: _555  and  _558
REMARK  217  A    between atoms: _561  and  _563
REMARK  218  A    between atoms: _563  and  _564
REMARK  219  A    between atoms: _563  and  _566
REMARK  220  A    between atoms: _566  and  _567
REMARK  221  A    between atoms: _572  and  _574
REMARK  222  A    between atoms: _574  and  _575
REMARK  223  A    between atoms: _574  and  _577
REMARK  224  A    between atoms: _577  and  _578
REMARK  225  A    between atoms: _583  and  _585
REMARK  226  A    between atoms: _585  and  _586
REMARK  227  A    between atoms: _585  and  _588
REMARK  228  A    between atoms: _588  and  _589
REMARK  229  A    between atoms: _589  and  _590
REMARK  230  A    between atoms: _592  and  _594
REMARK  231  A    between atoms: _594  and  _595
REMARK  232  A    between atoms: _594  and  _597
REMARK  233  A    between atoms: _597  and  _598
REMARK  234  A    between atoms: _603  and  _604
REMARK  235  A    between atoms: _606  and  _608
REMARK  236  A    between atoms: _608  and  _609
REMARK  237  A    between atoms: _608  and  _611
REMARK  238  A    between atoms: _611  and  _612
REMARK  239  A    between atoms: _612  and  _613
REMARK  240  A    between atoms: _618  and  _620
REMARK  241  A    between atoms: _620  and  _621
REMARK  242  A    between atoms: _620  and  _623
REMARK  243  A    between atoms: _623  and  _624
REMARK  244  A    between atoms: _628  and  _629
REMARK  245  A    between atoms: _634  and  _636
REMARK  246  A    between atoms: _636  and  _637
REMARK  247  A    between atoms: _636  and  _639
REMARK  248  A    between atoms: _639  and  _640
REMARK  249  A    between atoms: _646  and  _648
REMARK  250  A    between atoms: _648  and  _649
REMARK  251  A    between atoms: _648  and  _651
REMARK  252  A    between atoms: _651  and  _652
REMARK  253  A    between atoms: _652  and  _653
REMARK  254  A    between atoms: _658  and  _660
REMARK  255  A    between atoms: _660  and  _661
REMARK  256  A    between atoms: _660  and  _663
REMARK  257  A    between atoms: _663  and  _664
REMARK  258  A    between atoms: _667  and  _669
REMARK  259  A    between atoms: _669  and  _670
REMARK  260  A    between atoms: _669  and  _672
REMARK  261  A    between atoms: _672  and  _673
REMARK  262  A    between atoms: _678  and  _679
REMARK  263  A    between atoms: _681  and  _683
REMARK  264  A    between atoms: _683  and  _684
REMARK  265  A    between atoms: _683  and  _686
REMARK  266  A    between atoms: _686  and  _687
REMARK  267  A    between atoms: _692  and  _693
REMARK  268  A    between atoms: _695  and  _697
REMARK  269  A    between atoms: _697  and  _698
REMARK  270  A    between atoms: _697  and  _700
REMARK  271  A    between atoms: _700  and  _701
REMARK  272  A    between atoms: _701  and  _702
REMARK  273  A    between atoms: _705  and  _707
REMARK  274  A    between atoms: _707  and  _708
REMARK  275  A    between atoms: _707  and  _710
REMARK  276  A    between atoms: _710  and  _711
REMARK  277  A    between atoms: _711  and  _712
REMARK  278  A    between atoms: _712  and  _713
REMARK  279  A    between atoms: _722  and  _724
REMARK  280  A    between atoms: _724  and  _725
REMARK  281  A    between atoms: _724  and  _727
REMARK  282  A    between atoms: _727  and  _728
REMARK  283  A    between atoms: _738  and  _740
REMARK  284  A    between atoms: _740  and  _741
REMARK  285  A    between atoms: _740  and  _743
REMARK  286  A    between atoms: _743  and  _744
REMARK  287  A    between atoms: _747  and  _749
REMARK  288  A    between atoms: _749  and  _750
REMARK  289  A    between atoms: _753  and  _755
REMARK  290  A    between atoms: _755  and  _756
REMARK  291  A    between atoms: _755  and  _758
REMARK  292  A    between atoms: _758  and  _759
REMARK  293  A    between atoms: _762  and  _764
REMARK  294  A    between atoms: _764  and  _765
REMARK  295  A    between atoms: _764  and  _767
REMARK  296  A    between atoms: _767  and  _768
REMARK  297  A    between atoms: _768  and  _769
REMARK  298  A    between atoms: _769  and  _770
REMARK  299  A    between atoms: _770  and  _771
REMARK  300  A    between atoms: _775  and  _777
REMARK  301  A    between atoms: _777  and  _778
REMARK  302  A    between atoms: _777  and  _780
REMARK  303  A    between atoms: _780  and  _781
REMARK                            x       y       z     vdW  Elec       q    Type
REMARK                         _______ _______ _______ _____ _____    ______ ____
ROOT
ATOM      1  O   HOH     1     -18.342  -0.600  -8.045  0.00  0.00    +0.000 OA
ENDROOT
TORSDOF 0
REMARK  Name = ../refined-set-2016/1y3p/1y3p_pocket.pdb
REMARK  303 active torsions:
REMARK  status: ('A' for Active; 'I' for Inactive)
REMARK    1  A    between atoms: _1  and  _3
REMARK    2  A    between atoms: _3  and  _4
REMARK    3  A    between atoms: _3  and  _6
REMARK    4  A    between atoms: _6  and  _7
REMARK    5  A    between atoms: _12  and  _14
REMARK    6  A    between atoms: _14  and  _15
REMARK    7  A    between atoms: _14  and  _17
REMARK    8  A    between atoms: _17  and  _18
REMARK    9  A    between atoms: _24  and  _26
REMARK   10  A    between atoms: _26  and  _27
REMARK   11  A    between atoms: _26  and  _29
REMARK   12  A    between atoms: _29  and  _30
REMARK   13  A    between atoms: _30  and  _31
REMARK   14  A    between atoms: _31  and  _32
REMARK   15  A    between atoms: _41  and  _43
REMARK   16  A    between atoms: _43  and  _44
REMARK   17  A    between atoms: _43  and  _46
REMARK   18  A    between atoms: _46  and  _47
REMARK   19  A    between atoms: _50  and  _52
REMARK   20  A    between atoms: _52  and  _53
REMARK   21  A    between atoms: _52  and  _55
REMARK   22  A    between atoms: _55  and  _56
REMARK   23  A    between atoms: _56  and  _57
REMARK   24  A    between atoms: _57  and  _58
REMARK   25  A    between atoms: _58  and  _59
REMARK   26  A    between atoms: _63  and  _65
REMARK   27  A    between atoms: _65  and  _66
REMARK   28  A    between atoms: _65  and  _68
REMARK   29  A    between atoms: _68  and  _69
REMARK   30  A    between atoms: _79  and  _81
REMARK   31  A    between atoms: _81  and  _82
REMARK   32  A    between atoms: _81  and  _84
REMARK   33  A    between atoms: _84  and  _85
REMARK   34  A    between atoms: _88  and  _90
REMARK   35  A    between atoms: _90  and  _91
REMARK   36  A    between atoms: _90  and  _93
REMARK   37  A    between atoms: _93  and  _94
REMARK   38  A    between atoms: _99  and  _101
REMARK   39  A    between atoms: _101  and  _102
REMARK   40  A    between atoms: _101  and  _104
REMARK   41  A    between atoms: _104  and  _105
REMARK   42  A    between atoms: _107  and  _109
REMARK   43  A    between atoms: _109  and  _110
REMARK   44  A    between atoms: _109  and  _112
REMARK   45  A    between atoms: _112  and  _113
REMARK   46  A    between atoms: _113  and  _114
REMARK   47  A    between atoms: _119  and  _121
REMARK   48  A    between atoms: _121  and  _122
REMARK   49  A    between atoms: _121  and  _124
REMARK   50  A    between atoms: _124  and  _125
REMARK   51  A    between atoms: _125  and  _126
REMARK   52  A    between atoms: _129  and  _131
REMARK   53  A    between atoms: _131  and  _132
REMARK   54  A    between atoms: _134  and  _136
REMARK   55  A    between atoms: _136  and  _137
REMARK   56  A    between atoms: _136  and  _139
REMARK   57  A    between atoms: _139  and  _140
REMARK   58  A    between atoms: _143  and  _145
REMARK   59  A    between atoms: _145  and  _146
REMARK   60  A    between atoms: _145  and  _148
REMARK   61  A    between atoms: _148  and  _149
REMARK   62  A    between atoms: _154  and  _156
REMARK   63  A    between atoms: _156  and  _157
REMARK   64  A    between atoms: _156  and  _159
REMARK   65  A    between atoms: _159  and  _160
REMARK   66  A    between atoms: _163  and  _165
REMARK   67  A    between atoms: _165  and  _166
REMARK   68  A    between atoms: _165  and  _168
REMARK   69  A    between atoms: _168  and  _169
REMARK   70  A    between atoms: _169  and  _170
REMARK   71  A    between atoms: _170  and  _171
REMARK   72  A    between atoms: _171  and  _172
REMARK   73  A    between atoms: _176  and  _178
REMARK   74  A    between atoms: _178  and  _179
REMARK   75  A    between atoms: _178  and  _181
REMARK   76  A    between atoms: _181  and  _182
REMARK   77  A    between atoms: _187  and  _188
REMARK   78  A    between atoms: _191  and  _192
REMARK   79  A    between atoms: _197  and  _199
REMARK   80  A    between atoms: _199  and  _200
REMARK   81  A    between atoms: _199  and  _202
REMARK   82  A    between atoms: _202  and  _203
REMARK   83  A    between atoms: _206  and  _208
REMARK   84  A    between atoms: _208  and  _209
REMARK   85  A    between atoms: _211  and  _213
REMARK   86  A    between atoms: _213  and  _214
REMARK   87  A    between atoms: _213  and  _216
REMARK   88  A    between atoms: _219  and  _221
REMARK   89  A    between atoms: _221  and  _222
REMARK   90  A    between atoms: _221  and  _224
REMARK   91  A    between atoms: _224  and  _225
REMARK   92  A    between atoms: _227  and  _229
REMARK   93  A    between atoms: _229  and  _230
REMARK   94  A    between atoms: _229  and  _232
REMARK   95  A    between atoms: _232  and  _233
REMARK   96  A    between atoms: _233  and  _234
REMARK   97  A    between atoms: _234  and  _235
REMARK   98  A    between atoms: _244  and  _246
REMARK   99  A    between atoms: _246  and  _247
REMARK  100  A    between atoms: _246  and  _249
REMARK  101  A    between atoms: _249  and  _250
REMARK  102  A    between atoms: _255  and  _257
REMARK  103  A    between atoms: _257  and  _258
REMARK  104  A    between atoms: _257  and  _260
REMARK  105  A    between atoms: _260  and  _261
REMARK  106  A    between atoms: _261  and  _262
REMARK  107  A    between atoms: _262  and  _263
REMARK  108  A    between atoms: _272  and  _274
REMARK  109  A    between atoms: _274  and  _275
REMARK  110  A    between atoms: _274  and  _277
REMARK  111  A    between atoms: _277  and  _278
REMARK  112  A    between atoms: _282  and  _283
REMARK  113  A    between atoms: _288  and  _290
REMARK  114  A    between atoms: _290  and  _291
REMARK  115  A    between atoms: _290  and  _293
REMARK  116  A    between atoms: _293  and  _294
REMARK  117  A    between atoms: _294  and  _295
REMARK  118  A    between atoms: _298  and  _300
REMARK  119  A    between atoms: _300  and  _301
REMARK  120  A    between atoms: _300  and  _303
REMARK  121  A    between atoms: _303  and  _304
REMARK  122  A    between atoms: _304  and  _305
REMARK  123  A    between atoms: _308  and  _310
REMARK  124  A    between atoms: _310  and  _311
REMARK  125  A    between atoms: _310  and  _313
REMARK  126  A    between atoms: _313  and  _314
REMARK  127  A    between atoms: _319  and  _321
REMARK  128  A    between atoms: _321  and  _322
REMARK  129  A    between atoms: _321  and  _324
REMARK  130  A    between atoms: _324  and  _325
REMARK  131  A    between atoms: _328  and  _330
REMARK  132  A    between atoms: _330  and  _331
REMARK  133  A    between atoms: _330  and  _333
REMARK  134  A    between atoms: _333  and  _334
REMARK  135  A    between atoms: _344  and  _346
REMARK  136  A    between atoms: _346  and  _347
REMARK  137  A    between atoms: _346  and  _349
REMARK  138  A    between atoms: _349  and  _350
REMARK  139  A    between atoms: _350  and  _351
REMARK  140  A    between atoms: _353  and  _355
REMARK  141  A    between atoms: _355  and  _356
REMARK  142  A    between atoms: _355  and  _358
REMARK  143  A    between atoms: _358  and  _359
REMARK  144  A    between atoms: _359  and  _360
REMARK  145  A    between atoms: _360  and  _361
REMARK  146  A    between atoms: _361  and  _362
REMARK  147  A    between atoms: _366  and  _368
REMARK  148  A    between atoms: _368  and  _369
REMARK  149  A    between atoms: _372  and  _374
REMARK  150  A    between atoms: _374  and  _375
REMARK  151  A    between atoms: _374  and  _377
REMARK  152  A    between atoms: _377  and  _378
REMARK  153  A    between atoms: _378  and  _379
REMARK  154  A    between atoms: _379  and  _380
REMARK  155  A    between atoms: _389  and  _391
REMARK  156  A    between atoms: _391  and  _392
REMARK  157  A    between atoms: _391  and  _394
REMARK  158  A    between atoms: _394  and  _395
REMARK  159  A    between atoms: _398  and  _400
REMARK  160  A    between atoms: _400  and  _401
REMARK  161  A    between atoms: _400  and  _403
REMARK  162  A    between atoms: _403  and  _404
REMARK  163  A    between atoms: _414  and  _416
REMARK  164  A    between atoms: _416  and  _417
REMARK  165  A    between atoms: _416  and  _419
REMARK  166  A    between atoms: _419  and  _420
REMARK  167  A    between atoms: _426  and  _428
REMARK  168  A    between atoms: _428  and  _429
REMARK  169  A    between atoms: _432  and  _434
REMARK  170  A    between atoms: _434  and  _435
REMARK  171  A    between atoms: _434  and  _437
REMARK  172  A    between atoms: _437  and  _438
REMARK  173  A    between atoms: _440  and  _442
REMARK  174  A    between atoms: _442  and  _443
REMARK  175  A    between atoms: _442  and  _445
REMARK  176  A    between atoms: _445  and  _446
REMARK  177  A    between atoms: _449  and  _451
REMARK  178  A    between atoms: _451  and  _452
REMARK  179  A    between atoms: _455  and  _457
REMARK  180  A    between atoms: _457  and  _458
REMARK  181  A    between atoms: _457  and  _460
REMARK  182  A    between atoms: _460  and  _461
REMARK  183  A    between atoms: _464  and  _466
REMARK  184  A    between atoms: _466  and  _467
REMARK  185  A    between atoms: _466  and  _469
REMARK  186  A    between atoms: _469  and  _470
REMARK  187  A    between atoms: _473  and  _475
REMARK  188  A    between atoms: _475  and  _476
REMARK  189  A    between atoms: _475  and  _478
REMARK  190  A    between atoms: _478  and  _479
REMARK  191  A    between atoms: _479  and  _480
REMARK  192  A    between atoms: _480  and  _481
REMARK  193  A    between atoms: _490  and  _492
REMARK  194  A    between atoms: _492  and  _493
REMARK  195  A    between atoms: _492  and  _495
REMARK  196  A    between atoms: _495  and  _496
REMARK  197  A    between atoms: _496  and  _497
REMARK  198  A    between atoms: _502  and  _504
REMARK  199  A    between atoms: _504  and  _505
REMARK  200  A    between atoms: _504  and  _507
REMARK  201  A    between atoms: _507  and  _508
REMARK  202  A    between atoms: _508  and  _509
REMARK  203  A    between atoms: _509  and  _510
REMARK  204  A    between atoms: _520  and  _521
REMARK  205  A    between atoms: _526  and  _528
REMARK  206  A    between atoms: _528  and  _529
REMARK  207  A    between atoms: _528  and  _531
REMARK  208  A    between atoms: _531  and  _532
REMARK  209  A    between atoms: _535  and  _537
REMARK  210  A    between atoms: _537  and  _538
REMARK  211  A    between atoms: _537  and  _540
REMARK  212  A    between atoms: _540  and  _541
REMARK  213  A    between atoms: _547  and  _548
REMARK  214  A    between atoms: _553  and  _555
REMARK  215  A    between atoms: _555  and  _556
REMARK  216  A    between atoms: _555  and  _558
REMARK  217  A    between atoms: _561  and  _563
REMARK  218  A    between atoms: _563  and  _564
REMARK  219  A    between atoms: _563  and  _566
REMARK  220  A    between atoms: _566  and  _567
REMARK  221  A    between atoms: _572  and  _574
REMARK  222  A    between atoms: _574  and  _575
REMARK  223  A    between atoms: _574  and  _577
REMARK  224  A    between atoms: _577  and  _578
REMARK  225  A    between atoms: _583  and  _585
REMARK  226  A    between atoms: _585  and  _586
REMARK  227  A    between atoms: _585  and  _588
REMARK  228  A    between atoms: _588  and  _589
REMARK  229  A    between atoms: _589  and  _590
REMARK  230  A    between atoms: _592  and  _594
REMARK  231  A    between atoms: _594  and  _595
REMARK  232  A    between atoms: _594  and  _597
REMARK  233  A    between atoms: _597  and  _598
REMARK  234  A    between atoms: _603  and  _604
REMARK  235  A    between atoms: _606  and  _608
REMARK  236  A    between atoms: _608  and  _609
REMARK  237  A    between atoms: _608  and  _611
REMARK  238  A    between atoms: _611  and  _612
REMARK  239  A    between atoms: _612  and  _613
REMARK  240  A    between atoms: _618  and  _620
REMARK  241  A    between atoms: _620  and  _621
REMARK  242  A    between atoms: _620  and  _623
REMARK  243  A    between atoms: _623  and  _624
REMARK  244  A    between atoms: _628  and  _629
REMARK  245  A    between atoms: _634  and  _636
REMARK  246  A    between atoms: _636  and  _637
REMARK  247  A    between atoms: _636  and  _639
REMARK  248  A    between atoms: _639  and  _640
REMARK  249  A    between atoms: _646  and  _648
REMARK  250  A    between atoms: _648  and  _649
REMARK  251  A    between atoms: _648  and  _651
REMARK  252  A    between atoms: _651  and  _652
REMARK  253  A    between atoms: _652  and  _653
REMARK  254  A    between atoms: _658  and  _660
REMARK  255  A    between atoms: _660  and  _661
REMARK  256  A    between atoms: _660  and  _663
REMARK  257  A    between atoms: _663  and  _664
REMARK  258  A    between atoms: _667  and  _669
REMARK  259  A    between atoms: _669  and  _670
REMARK  260  A    between atoms: _669  and  _672
REMARK  261  A    between atoms: _672  and  _673
REMARK  262  A    between atoms: _678  and  _679
REMARK  263  A    between atoms: _681  and  _683
REMARK  264  A    between atoms: _683  and  _684
REMARK  265  A    between atoms: _683  and  _686
REMARK  266  A    between atoms: _686  and  _687
REMARK  267  A    between atoms: _692  and  _693
REMARK  268  A    between atoms: _695  and  _697
REMARK  269  A    between atoms: _697  and  _698
REMARK  270  A    between atoms: _697  and  _700
REMARK  271  A    between atoms: _700  and  _701
REMARK  272  A    between atoms: _701  and  _702
REMARK  273  A    between atoms: _705  and  _707
REMARK  274  A    between atoms: _707  and  _708
REMARK  275  A    between atoms: _707  and  _710
REMARK  276  A    between atoms: _710  and  _711
REMARK  277  A    between atoms: _711  and  _712
REMARK  278  A    between atoms: _712  and  _713
REMARK  279  A    between atoms: _722  and  _724
REMARK  280  A    between atoms: _724  and  _725
REMARK  281  A    between atoms: _724  and  _727
REMARK  282  A    between atoms: _727  and  _728
REMARK  283  A    between atoms: _738  and  _740
REMARK  284  A    between atoms: _740  and  _741
REMARK  285  A    between atoms: _740  and  _743
REMARK  286  A    between atoms: _743  and  _744
REMARK  287  A    between atoms: _747  and  _749
REMARK  288  A    between atoms: _749  and  _750
REMARK  289  A    between atoms: _753  and  _755
REMARK  290  A    between atoms: _755  and  _756
REMARK  291  A    between atoms: _755  and  _758
REMARK  292  A    between atoms: _758  and  _759
REMARK  293  A    between atoms: _762  and  _764
REMARK  294  A    between atoms: _764  and  _765
REMARK  295  A    between atoms: _764  and  _767
REMARK  296  A    between atoms: _767  and  _768
REMARK  297  A    between atoms: _768  and  _769
REMARK  298  A    between atoms: _769  and  _770
REMARK  299  A    between atoms: _770  and  _771
REMARK  300  A    between atoms: _775  and  _777
REMARK  301  A    between atoms: _777  and  _778
REMARK  302  A    between atoms: _777  and  _780
REMARK  303  A    between atoms: _780  and  _781
REMARK                            x       y       z     vdW  Elec       q    Type
REMARK                         _______ _______ _______ _____ _____    ______ ____
ROOT
ATOM      1  O   HOH     1     -23.540  -1.909 -17.924  0.00  0.00    +0.000 OA
ENDROOT
TORSDOF 0
REMARK  Name = ../refined-set-2016/1y3p/1y3p_pocket.pdb
REMARK  303 active torsions:
REMARK  status: ('A' for Active; 'I' for Inactive)
REMARK    1  A    between atoms: _1  and  _3
REMARK    2  A    between atoms: _3  and  _4
REMARK    3  A    between atoms: _3  and  _6
REMARK    4  A    between atoms: _6  and  _7
REMARK    5  A    between atoms: _12  and  _14
REMARK    6  A    between atoms: _14  and  _15
REMARK    7  A    between atoms: _14  and  _17
REMARK    8  A    between atoms: _17  and  _18
REMARK    9  A    between atoms: _24  and  _26
REMARK   10  A    between atoms: _26  and  _27
REMARK   11  A    between atoms: _26  and  _29
REMARK   12  A    between atoms: _29  and  _30
REMARK   13  A    between atoms: _30  and  _31
REMARK   14  A    between atoms: _31  and  _32
REMARK   15  A    between atoms: _41  and  _43
REMARK   16  A    between atoms: _43  and  _44
REMARK   17  A    between atoms: _43  and  _46
REMARK   18  A    between atoms: _46  and  _47
REMARK   19  A    between atoms: _50  and  _52
REMARK   20  A    between atoms: _52  and  _53
REMARK   21  A    between atoms: _52  and  _55
REMARK   22  A    between atoms: _55  and  _56
REMARK   23  A    between atoms: _56  and  _57
REMARK   24  A    between atoms: _57  and  _58
REMARK   25  A    between atoms: _58  and  _59
REMARK   26  A    between atoms: _63  and  _65
REMARK   27  A    between atoms: _65  and  _66
REMARK   28  A    between atoms: _65  and  _68
REMARK   29  A    between atoms: _68  and  _69
REMARK   30  A    between atoms: _79  and  _81
REMARK   31  A    between atoms: _81  and  _82
REMARK   32  A    between atoms: _81  and  _84
REMARK   33  A    between atoms: _84  and  _85
REMARK   34  A    between atoms: _88  and  _90
REMARK   35  A    between atoms: _90  and  _91
REMARK   36  A    between atoms: _90  and  _93
REMARK   37  A    between atoms: _93  and  _94
REMARK   38  A    between atoms: _99  and  _101
REMARK   39  A    between atoms: _101  and  _102
REMARK   40  A    between atoms: _101  and  _104
REMARK   41  A    between atoms: _104  and  _105
REMARK   42  A    between atoms: _107  and  _109
REMARK   43  A    between atoms: _109  and  _110
REMARK   44  A    between atoms: _109  and  _112
REMARK   45  A    between atoms: _112  and  _113
REMARK   46  A    between atoms: _113  and  _114
REMARK   47  A    between atoms: _119  and  _121
REMARK   48  A    between atoms: _121  and  _122
REMARK   49  A    between atoms: _121  and  _124
REMARK   50  A    between atoms: _124  and  _125
REMARK   51  A    between atoms: _125  and  _126
REMARK   52  A    between atoms: _129  and  _131
REMARK   53  A    between atoms: _131  and  _132
REMARK   54  A    between atoms: _134  and  _136
REMARK   55  A    between atoms: _136  and  _137
REMARK   56  A    between atoms: _136  and  _139
REMARK   57  A    between atoms: _139  and  _140
REMARK   58  A    between atoms: _143  and  _145
REMARK   59  A    between atoms: _145  and  _146
REMARK   60  A    between atoms: _145  and  _148
REMARK   61  A    between atoms: _148  and  _149
REMARK   62  A    between atoms: _154  and  _156
REMARK   63  A    between atoms: _156  and  _157
REMARK   64  A    between atoms: _156  and  _159
REMARK   65  A    between atoms: _159  and  _160
REMARK   66  A    between atoms: _163  and  _165
REMARK   67  A    between atoms: _165  and  _166
REMARK   68  A    between atoms: _165  and  _168
REMARK   69  A    between atoms: _168  and  _169
REMARK   70  A    between atoms: _169  and  _170
REMARK   71  A    between atoms: _170  and  _171
REMARK   72  A    between atoms: _171  and  _172
REMARK   73  A    between atoms: _176  and  _178
REMARK   74  A    between atoms: _178  and  _179
REMARK   75  A    between atoms: _178  and  _181
REMARK   76  A    between atoms: _181  and  _182
REMARK   77  A    between atoms: _187  and  _188
REMARK   78  A    between atoms: _191  and  _192
REMARK   79  A    between atoms: _197  and  _199
REMARK   80  A    between atoms: _199  and  _200
REMARK   81  A    between atoms: _199  and  _202
REMARK   82  A    between atoms: _202  and  _203
REMARK   83  A    between atoms: _206  and  _208
REMARK   84  A    between atoms: _208  and  _209
REMARK   85  A    between atoms: _211  and  _213
REMARK   86  A    between atoms: _213  and  _214
REMARK   87  A    between atoms: _213  and  _216
REMARK   88  A    between atoms: _219  and  _221
REMARK   89  A    between atoms: _221  and  _222
REMARK   90  A    between atoms: _221  and  _224
REMARK   91  A    between atoms: _224  and  _225
REMARK   92  A    between atoms: _227  and  _229
REMARK   93  A    between atoms: _229  and  _230
REMARK   94  A    between atoms: _229  and  _232
REMARK   95  A    between atoms: _232  and  _233
REMARK   96  A    between atoms: _233  and  _234
REMARK   97  A    between atoms: _234  and  _235
REMARK   98  A    between atoms: _244  and  _246
REMARK   99  A    between atoms: _246  and  _247
REMARK  100  A    between atoms: _246  and  _249
REMARK  101  A    between atoms: _249  and  _250
REMARK  102  A    between atoms: _255  and  _257
REMARK  103  A    between atoms: _257  and  _258
REMARK  104  A    between atoms: _257  and  _260
REMARK  105  A    between atoms: _260  and  _261
REMARK  106  A    between atoms: _261  and  _262
REMARK  107  A    between atoms: _262  and  _263
REMARK  108  A    between atoms: _272  and  _274
REMARK  109  A    between atoms: _274  and  _275
REMARK  110  A    between atoms: _274  and  _277
REMARK  111  A    between atoms: _277  and  _278
REMARK  112  A    between atoms: _282  and  _283
REMARK  113  A    between atoms: _288  and  _290
REMARK  114  A    between atoms: _290  and  _291
REMARK  115  A    between atoms: _290  and  _293
REMARK  116  A    between atoms: _293  and  _294
REMARK  117  A    between atoms: _294  and  _295
REMARK  118  A    between atoms: _298  and  _300
REMARK  119  A    between atoms: _300  and  _301
REMARK  120  A    between atoms: _300  and  _303
REMARK  121  A    between atoms: _303  and  _304
REMARK  122  A    between atoms: _304  and  _305
REMARK  123  A    between atoms: _308  and  _310
REMARK  124  A    between atoms: _310  and  _311
REMARK  125  A    between atoms: _310  and  _313
REMARK  126  A    between atoms: _313  and  _314
REMARK  127  A    between atoms: _319  and  _321
REMARK  128  A    between atoms: _321  and  _322
REMARK  129  A    between atoms: _321  and  _324
REMARK  130  A    between atoms: _324  and  _325
REMARK  131  A    between atoms: _328  and  _330
REMARK  132  A    between atoms: _330  and  _331
REMARK  133  A    between atoms: _330  and  _333
REMARK  134  A    between atoms: _333  and  _334
REMARK  135  A    between atoms: _344  and  _346
REMARK  136  A    between atoms: _346  and  _347
REMARK  137  A    between atoms: _346  and  _349
REMARK  138  A    between atoms: _349  and  _350
REMARK  139  A    between atoms: _350  and  _351
REMARK  140  A    between atoms: _353  and  _355
REMARK  141  A    between atoms: _355  and  _356
REMARK  142  A    between atoms: _355  and  _358
REMARK  143  A    between atoms: _358  and  _359
REMARK  144  A    between atoms: _359  and  _360
REMARK  145  A    between atoms: _360  and  _361
REMARK  146  A    between atoms: _361  and  _362
REMARK  147  A    between atoms: _366  and  _368
REMARK  148  A    between atoms: _368  and  _369
REMARK  149  A    between atoms: _372  and  _374
REMARK  150  A    between atoms: _374  and  _375
REMARK  151  A    between atoms: _374  and  _377
REMARK  152  A    between atoms: _377  and  _378
REMARK  153  A    between atoms: _378  and  _379
REMARK  154  A    between atoms: _379  and  _380
REMARK  155  A    between atoms: _389  and  _391
REMARK  156  A    between atoms: _391  and  _392
REMARK  157  A    between atoms: _391  and  _394
REMARK  158  A    between atoms: _394  and  _395
REMARK  159  A    between atoms: _398  and  _400
REMARK  160  A    between atoms: _400  and  _401
REMARK  161  A    between atoms: _400  and  _403
REMARK  162  A    between atoms: _403  and  _404
REMARK  163  A    between atoms: _414  and  _416
REMARK  164  A    between atoms: _416  and  _417
REMARK  165  A    between atoms: _416  and  _419
REMARK  166  A    between atoms: _419  and  _420
REMARK  167  A    between atoms: _426  and  _428
REMARK  168  A    between atoms: _428  and  _429
REMARK  169  A    between atoms: _432  and  _434
REMARK  170  A    between atoms: _434  and  _435
REMARK  171  A    between atoms: _434  and  _437
REMARK  172  A    between atoms: _437  and  _438
REMARK  173  A    between atoms: _440  and  _442
REMARK  174  A    between atoms: _442  and  _443
REMARK  175  A    between atoms: _442  and  _445
REMARK  176  A    between atoms: _445  and  _446
REMARK  177  A    between atoms: _449  and  _451
REMARK  178  A    between atoms: _451  and  _452
REMARK  179  A    between atoms: _455  and  _457
REMARK  180  A    between atoms: _457  and  _458
REMARK  181  A    between atoms: _457  and  _460
REMARK  182  A    between atoms: _460  and  _461
REMARK  183  A    between atoms: _464  and  _466
REMARK  184  A    between atoms: _466  and  _467
REMARK  185  A    between atoms: _466  and  _469
REMARK  186  A    between atoms: _469  and  _470
REMARK  187  A    between atoms: _473  and  _475
REMARK  188  A    between atoms: _475  and  _476
REMARK  189  A    between atoms: _475  and  _478
REMARK  190  A    between atoms: _478  and  _479
REMARK  191  A    between atoms: _479  and  _480
REMARK  192  A    between atoms: _480  and  _481
REMARK  193  A    between atoms: _490  and  _492
REMARK  194  A    between atoms: _492  and  _493
REMARK  195  A    between atoms: _492  and  _495
REMARK  196  A    between atoms: _495  and  _496
REMARK  197  A    between atoms: _496  and  _497
REMARK  198  A    between atoms: _502  and  _504
REMARK  199  A    between atoms: _504  and  _505
REMARK  200  A    between atoms: _504  and  _507
REMARK  201  A    between atoms: _507  and  _508
REMARK  202  A    between atoms: _508  and  _509
REMARK  203  A    between atoms: _509  and  _510
REMARK  204  A    between atoms: _520  and  _521
REMARK  205  A    between atoms: _526  and  _528
REMARK  206  A    between atoms: _528  and  _529
REMARK  207  A    between atoms: _528  and  _531
REMARK  208  A    between atoms: _531  and  _532
REMARK  209  A    between atoms: _535  and  _537
REMARK  210  A    between atoms: _537  and  _538
REMARK  211  A    between atoms: _537  and  _540
REMARK  212  A    between atoms: _540  and  _541
REMARK  213  A    between atoms: _547  and  _548
REMARK  214  A    between atoms: _553  and  _555
REMARK  215  A    between atoms: _555  and  _556
REMARK  216  A    between atoms: _555  and  _558
REMARK  217  A    between atoms: _561  and  _563
REMARK  218  A    between atoms: _563  and  _564
REMARK  219  A    between atoms: _563  and  _566
REMARK  220  A    between atoms: _566  and  _567
REMARK  221  A    between atoms: _572  and  _574
REMARK  222  A    between atoms: _574  and  _575
REMARK  223  A    between atoms: _574  and  _577
REMARK  224  A    between atoms: _577  and  _578
REMARK  225  A    between atoms: _583  and  _585
REMARK  226  A    between atoms: _585  and  _586
REMARK  227  A    between atoms: _585  and  _588
REMARK  228  A    between atoms: _588  and  _589
REMARK  229  A    between atoms: _589  and  _590
REMARK  230  A    between atoms: _592  and  _594
REMARK  231  A    between atoms: _594  and  _595
REMARK  232  A    between atoms: _594  and  _597
REMARK  233  A    between atoms: _597  and  _598
REMARK  234  A    between atoms: _603  and  _604
REMARK  235  A    between atoms: _606  and  _608
REMARK  236  A    between atoms: _608  and  _609
REMARK  237  A    between atoms: _608  and  _611
REMARK  238  A    between atoms: _611  and  _612
REMARK  239  A    between atoms: _612  and  _613
REMARK  240  A    between atoms: _618  and  _620
REMARK  241  A    between atoms: _620  and  _621
REMARK  242  A    between atoms: _620  and  _623
REMARK  243  A    between atoms: _623  and  _624
REMARK  244  A    between atoms: _628  and  _629
REMARK  245  A    between atoms: _634  and  _636
REMARK  246  A    between atoms: _636  and  _637
REMARK  247  A    between atoms: _636  and  _639
REMARK  248  A    between atoms: _639  and  _640
REMARK  249  A    between atoms: _646  and  _648
REMARK  250  A    between atoms: _648  and  _649
REMARK  251  A    between atoms: _648  and  _651
REMARK  252  A    between atoms: _651  and  _652
REMARK  253  A    between atoms: _652  and  _653
REMARK  254  A    between atoms: _658  and  _660
REMARK  255  A    between atoms: _660  and  _661
REMARK  256  A    between atoms: _660  and  _663
REMARK  257  A    between atoms: _663  and  _664
REMARK  258  A    between atoms: _667  and  _669
REMARK  259  A    between atoms: _669  and  _670
REMARK  260  A    between atoms: _669  and  _672
REMARK  261  A    between atoms: _672  and  _673
REMARK  262  A    between atoms: _678  and  _679
REMARK  263  A    between atoms: _681  and  _683
REMARK  264  A    between atoms: _683  and  _684
REMARK  265  A    between atoms: _683  and  _686
REMARK  266  A    between atoms: _686  and  _687
REMARK  267  A    between atoms: _692  and  _693
REMARK  268  A    between atoms: _695  and  _697
REMARK  269  A    between atoms: _697  and  _698
REMARK  270  A    between atoms: _697  and  _700
REMARK  271  A    between atoms: _700  and  _701
REMARK  272  A    between atoms: _701  and  _702
REMARK  273  A    between atoms: _705  and  _707
REMARK  274  A    between atoms: _707  and  _708
REMARK  275  A    between atoms: _707  and  _710
REMARK  276  A    between atoms: _710  and  _711
REMARK  277  A    between atoms: _711  and  _712
REMARK  278  A    between atoms: _712  and  _713
REMARK  279  A    between atoms: _722  and  _724
REMARK  280  A    between atoms: _724  and  _725
REMARK  281  A    between atoms: _724  and  _727
REMARK  282  A    between atoms: _727  and  _728
REMARK  283  A    between atoms: _738  and  _740
REMARK  284  A    between atoms: _740  and  _741
REMARK  285  A    between atoms: _740  and  _743
REMARK  286  A    between atoms: _743  and  _744
REMARK  287  A    between atoms: _747  and  _749
REMARK  288  A    between atoms: _749  and  _750
REMARK  289  A    between atoms: _753  and  _755
REMARK  290  A    between atoms: _755  and  _756
REMARK  291  A    between atoms: _755  and  _758
REMARK  292  A    between atoms: _758  and  _759
REMARK  293  A    between atoms: _762  and  _764
REMARK  294  A    between atoms: _764  and  _765
REMARK  295  A    between atoms: _764  and  _767
REMARK  296  A    between atoms: _767  and  _768
REMARK  297  A    between atoms: _768  and  _769
REMARK  298  A    between atoms: _769  and  _770
REMARK  299  A    between atoms: _770  and  _771
REMARK  300  A    between atoms: _775  and  _777
REMARK  301  A    between atoms: _777  and  _778
REMARK  302  A    between atoms: _777  and  _780
REMARK  303  A    between atoms: _780  and  _781
REMARK                            x       y       z     vdW  Elec       q    Type
REMARK                         _______ _______ _______ _____ _____    ______ ____
ROOT
ATOM      1  O   HOH     1     -19.248 -12.682 -11.380  0.00  0.00    +0.000 OA
ENDROOT
TORSDOF 0
REMARK  Name = ../refined-set-2016/1y3p/1y3p_pocket.pdb
REMARK  303 active torsions:
REMARK  status: ('A' for Active; 'I' for Inactive)
REMARK    1  A    between atoms: _1  and  _3
REMARK    2  A    between atoms: _3  and  _4
REMARK    3  A    between atoms: _3  and  _6
REMARK    4  A    between atoms: _6  and  _7
REMARK    5  A    between atoms: _12  and  _14
REMARK    6  A    between atoms: _14  and  _15
REMARK    7  A    between atoms: _14  and  _17
REMARK    8  A    between atoms: _17  and  _18
REMARK    9  A    between atoms: _24  and  _26
REMARK   10  A    between atoms: _26  and  _27
REMARK   11  A    between atoms: _26  and  _29
REMARK   12  A    between atoms: _29  and  _30
REMARK   13  A    between atoms: _30  and  _31
REMARK   14  A    between atoms: _31  and  _32
REMARK   15  A    between atoms: _41  and  _43
REMARK   16  A    between atoms: _43  and  _44
REMARK   17  A    between atoms: _43  and  _46
REMARK   18  A    between atoms: _46  and  _47
REMARK   19  A    between atoms: _50  and  _52
REMARK   20  A    between atoms: _52  and  _53
REMARK   21  A    between atoms: _52  and  _55
REMARK   22  A    between atoms: _55  and  _56
REMARK   23  A    between atoms: _56  and  _57
REMARK   24  A    between atoms: _57  and  _58
REMARK   25  A    between atoms: _58  and  _59
REMARK   26  A    between atoms: _63  and  _65
REMARK   27  A    between atoms: _65  and  _66
REMARK   28  A    between atoms: _65  and  _68
REMARK   29  A    between atoms: _68  and  _69
REMARK   30  A    between atoms: _79  and  _81
REMARK   31  A    between atoms: _81  and  _82
REMARK   32  A    between atoms: _81  and  _84
REMARK   33  A    between atoms: _84  and  _85
REMARK   34  A    between atoms: _88  and  _90
REMARK   35  A    between atoms: _90  and  _91
REMARK   36  A    between atoms: _90  and  _93
REMARK   37  A    between atoms: _93  and  _94
REMARK   38  A    between atoms: _99  and  _101
REMARK   39  A    between atoms: _101  and  _102
REMARK   40  A    between atoms: _101  and  _104
REMARK   41  A    between atoms: _104  and  _105
REMARK   42  A    between atoms: _107  and  _109
REMARK   43  A    between atoms: _109  and  _110
REMARK   44  A    between atoms: _109  and  _112
REMARK   45  A    between atoms: _112  and  _113
REMARK   46  A    between atoms: _113  and  _114
REMARK   47  A    between atoms: _119  and  _121
REMARK   48  A    between atoms: _121  and  _122
REMARK   49  A    between atoms: _121  and  _124
REMARK   50  A    between atoms: _124  and  _125
REMARK   51  A    between atoms: _125  and  _126
REMARK   52  A    between atoms: _129  and  _131
REMARK   53  A    between atoms: _131  and  _132
REMARK   54  A    between atoms: _134  and  _136
REMARK   55  A    between atoms: _136  and  _137
REMARK   56  A    between atoms: _136  and  _139
REMARK   57  A    between atoms: _139  and  _140
REMARK   58  A    between atoms: _143  and  _145
REMARK   59  A    between atoms: _145  and  _146
REMARK   60  A    between atoms: _145  and  _148
REMARK   61  A    between atoms: _148  and  _149
REMARK   62  A    between atoms: _154  and  _156
REMARK   63  A    between atoms: _156  and  _157
REMARK   64  A    between atoms: _156  and  _159
REMARK   65  A    between atoms: _159  and  _160
REMARK   66  A    between atoms: _163  and  _165
REMARK   67  A    between atoms: _165  and  _166
REMARK   68  A    between atoms: _165  and  _168
REMARK   69  A    between atoms: _168  and  _169
REMARK   70  A    between atoms: _169  and  _170
REMARK   71  A    between atoms: _170  and  _171
REMARK   72  A    between atoms: _171  and  _172
REMARK   73  A    between atoms: _176  and  _178
REMARK   74  A    between atoms: _178  and  _179
REMARK   75  A    between atoms: _178  and  _181
REMARK   76  A    between atoms: _181  and  _182
REMARK   77  A    between atoms: _187  and  _188
REMARK   78  A    between atoms: _191  and  _192
REMARK   79  A    between atoms: _197  and  _199
REMARK   80  A    between atoms: _199  and  _200
REMARK   81  A    between atoms: _199  and  _202
REMARK   82  A    between atoms: _202  and  _203
REMARK   83  A    between atoms: _206  and  _208
REMARK   84  A    between atoms: _208  and  _209
REMARK   85  A    between atoms: _211  and  _213
REMARK   86  A    between atoms: _213  and  _214
REMARK   87  A    between atoms: _213  and  _216
REMARK   88  A    between atoms: _219  and  _221
REMARK   89  A    between atoms: _221  and  _222
REMARK   90  A    between atoms: _221  and  _224
REMARK   91  A    between atoms: _224  and  _225
REMARK   92  A    between atoms: _227  and  _229
REMARK   93  A    between atoms: _229  and  _230
REMARK   94  A    between atoms: _229  and  _232
REMARK   95  A    between atoms: _232  and  _233
REMARK   96  A    between atoms: _233  and  _234
REMARK   97  A    between atoms: _234  and  _235
REMARK   98  A    between atoms: _244  and  _246
REMARK   99  A    between atoms: _246  and  _247
REMARK  100  A    between atoms: _246  and  _249
REMARK  101  A    between atoms: _249  and  _250
REMARK  102  A    between atoms: _255  and  _257
REMARK  103  A    between atoms: _257  and  _258
REMARK  104  A    between atoms: _257  and  _260
REMARK  105  A    between atoms: _260  and  _261
REMARK  106  A    between atoms: _261  and  _262
REMARK  107  A    between atoms: _262  and  _263
REMARK  108  A    between atoms: _272  and  _274
REMARK  109  A    between atoms: _274  and  _275
REMARK  110  A    between atoms: _274  and  _277
REMARK  111  A    between atoms: _277  and  _278
REMARK  112  A    between atoms: _282  and  _283
REMARK  113  A    between atoms: _288  and  _290
REMARK  114  A    between atoms: _290  and  _291
REMARK  115  A    between atoms: _290  and  _293
REMARK  116  A    between atoms: _293  and  _294
REMARK  117  A    between atoms: _294  and  _295
REMARK  118  A    between atoms: _298  and  _300
REMARK  119  A    between atoms: _300  and  _301
REMARK  120  A    between atoms: _300  and  _303
REMARK  121  A    between atoms: _303  and  _304
REMARK  122  A    between atoms: _304  and  _305
REMARK  123  A    between atoms: _308  and  _310
REMARK  124  A    between atoms: _310  and  _311
REMARK  125  A    between atoms: _310  and  _313
REMARK  126  A    between atoms: _313  and  _314
REMARK  127  A    between atoms: _319  and  _321
REMARK  128  A    between atoms: _321  and  _322
REMARK  129  A    between atoms: _321  and  _324
REMARK  130  A    between atoms: _324  and  _325
REMARK  131  A    between atoms: _328  and  _330
REMARK  132  A    between atoms: _330  and  _331
REMARK  133  A    between atoms: _330  and  _333
REMARK  134  A    between atoms: _333  and  _334
REMARK  135  A    between atoms: _344  and  _346
REMARK  136  A    between atoms: _346  and  _347
REMARK  137  A    between atoms: _346  and  _349
REMARK  138  A    between atoms: _349  and  _350
REMARK  139  A    between atoms: _350  and  _351
REMARK  140  A    between atoms: _353  and  _355
REMARK  141  A    between atoms: _355  and  _356
REMARK  142  A    between atoms: _355  and  _358
REMARK  143  A    between atoms: _358  and  _359
REMARK  144  A    between atoms: _359  and  _360
REMARK  145  A    between atoms: _360  and  _361
REMARK  146  A    between atoms: _361  and  _362
REMARK  147  A    between atoms: _366  and  _368
REMARK  148  A    between atoms: _368  and  _369
REMARK  149  A    between atoms: _372  and  _374
REMARK  150  A    between atoms: _374  and  _375
REMARK  151  A    between atoms: _374  and  _377
REMARK  152  A    between atoms: _377  and  _378
REMARK  153  A    between atoms: _378  and  _379
REMARK  154  A    between atoms: _379  and  _380
REMARK  155  A    between atoms: _389  and  _391
REMARK  156  A    between atoms: _391  and  _392
REMARK  157  A    between atoms: _391  and  _394
REMARK  158  A    between atoms: _394  and  _395
REMARK  159  A    between atoms: _398  and  _400
REMARK  160  A    between atoms: _400  and  _401
REMARK  161  A    between atoms: _400  and  _403
REMARK  162  A    between atoms: _403  and  _404
REMARK  163  A    between atoms: _414  and  _416
REMARK  164  A    between atoms: _416  and  _417
REMARK  165  A    between atoms: _416  and  _419
REMARK  166  A    between atoms: _419  and  _420
REMARK  167  A    between atoms: _426  and  _428
REMARK  168  A    between atoms: _428  and  _429
REMARK  169  A    between atoms: _432  and  _434
REMARK  170  A    between atoms: _434  and  _435
REMARK  171  A    between atoms: _434  and  _437
REMARK  172  A    between atoms: _437  and  _438
REMARK  173  A    between atoms: _440  and  _442
REMARK  174  A    between atoms: _442  and  _443
REMARK  175  A    between atoms: _442  and  _445
REMARK  176  A    between atoms: _445  and  _446
REMARK  177  A    between atoms: _449  and  _451
REMARK  178  A    between atoms: _451  and  _452
REMARK  179  A    between atoms: _455  and  _457
REMARK  180  A    between atoms: _457  and  _458
REMARK  181  A    between atoms: _457  and  _460
REMARK  182  A    between atoms: _460  and  _461
REMARK  183  A    between atoms: _464  and  _466
REMARK  184  A    between atoms: _466  and  _467
REMARK  185  A    between atoms: _466  and  _469
REMARK  186  A    between atoms: _469  and  _470
REMARK  187  A    between atoms: _473  and  _475
REMARK  188  A    between atoms: _475  and  _476
REMARK  189  A    between atoms: _475  and  _478
REMARK  190  A    between atoms: _478  and  _479
REMARK  191  A    between atoms: _479  and  _480
REMARK  192  A    between atoms: _480  and  _481
REMARK  193  A    between atoms: _490  and  _492
REMARK  194  A    between atoms: _492  and  _493
REMARK  195  A    between atoms: _492  and  _495
REMARK  196  A    between atoms: _495  and  _496
REMARK  197  A    between atoms: _496  and  _497
REMARK  198  A    between atoms: _502  and  _504
REMARK  199  A    between atoms: _504  and  _505
REMARK  200  A    between atoms: _504  and  _507
REMARK  201  A    between atoms: _507  and  _508
REMARK  202  A    between atoms: _508  and  _509
REMARK  203  A    between atoms: _509  and  _510
REMARK  204  A    between atoms: _520  and  _521
REMARK  205  A    between atoms: _526  and  _528
REMARK  206  A    between atoms: _528  and  _529
REMARK  207  A    between atoms: _528  and  _531
REMARK  208  A    between atoms: _531  and  _532
REMARK  209  A    between atoms: _535  and  _537
REMARK  210  A    between atoms: _537  and  _538
REMARK  211  A    between atoms: _537  and  _540
REMARK  212  A    between atoms: _540  and  _541
REMARK  213  A    between atoms: _547  and  _548
REMARK  214  A    between atoms: _553  and  _555
REMARK  215  A    between atoms: _555  and  _556
REMARK  216  A    between atoms: _555  and  _558
REMARK  217  A    between atoms: _561  and  _563
REMARK  218  A    between atoms: _563  and  _564
REMARK  219  A    between atoms: _563  and  _566
REMARK  220  A    between atoms: _566  and  _567
REMARK  221  A    between atoms: _572  and  _574
REMARK  222  A    between atoms: _574  and  _575
REMARK  223  A    between atoms: _574  and  _577
REMARK  224  A    between atoms: _577  and  _578
REMARK  225  A    between atoms: _583  and  _585
REMARK  226  A    between atoms: _585  and  _586
REMARK  227  A    between atoms: _585  and  _588
REMARK  228  A    between atoms: _588  and  _589
REMARK  229  A    between atoms: _589  and  _590
REMARK  230  A    between atoms: _592  and  _594
REMARK  231  A    between atoms: _594  and  _595
REMARK  232  A    between atoms: _594  and  _597
REMARK  233  A    between atoms: _597  and  _598
REMARK  234  A    between atoms: _603  and  _604
REMARK  235  A    between atoms: _606  and  _608
REMARK  236  A    between atoms: _608  and  _609
REMARK  237  A    between atoms: _608  and  _611
REMARK  238  A    between atoms: _611  and  _612
REMARK  239  A    between atoms: _612  and  _613
REMARK  240  A    between atoms: _618  and  _620
REMARK  241  A    between atoms: _620  and  _621
REMARK  242  A    between atoms: _620  and  _623
REMARK  243  A    between atoms: _623  and  _624
REMARK  244  A    between atoms: _628  and  _629
REMARK  245  A    between atoms: _634  and  _636
REMARK  246  A    between atoms: _636  and  _637
REMARK  247  A    between atoms: _636  and  _639
REMARK  248  A    between atoms: _639  and  _640
REMARK  249  A    between atoms: _646  and  _648
REMARK  250  A    between atoms: _648  and  _649
REMARK  251  A    between atoms: _648  and  _651
REMARK  252  A    between atoms: _651  and  _652
REMARK  253  A    between atoms: _652  and  _653
REMARK  254  A    between atoms: _658  and  _660
REMARK  255  A    between atoms: _660  and  _661
REMARK  256  A    between atoms: _660  and  _663
REMARK  257  A    between atoms: _663  and  _664
REMARK  258  A    between atoms: _667  and  _669
REMARK  259  A    between atoms: _669  and  _670
REMARK  260  A    between atoms: _669  and  _672
REMARK  261  A    between atoms: _672  and  _673
REMARK  262  A    between atoms: _678  and  _679
REMARK  263  A    between atoms: _681  and  _683
REMARK  264  A    between atoms: _683  and  _684
REMARK  265  A    between atoms: _683  and  _686
REMARK  266  A    between atoms: _686  and  _687
REMARK  267  A    between atoms: _692  and  _693
REMARK  268  A    between atoms: _695  and  _697
REMARK  269  A    between atoms: _697  and  _698
REMARK  270  A    between atoms: _697  and  _700
REMARK  271  A    between atoms: _700  and  _701
REMARK  272  A    between atoms: _701  and  _702
REMARK  273  A    between atoms: _705  and  _707
REMARK  274  A    between atoms: _707  and  _708
REMARK  275  A    between atoms: _707  and  _710
REMARK  276  A    between atoms: _710  and  _711
REMARK  277  A    between atoms: _711  and  _712
REMARK  278  A    between atoms: _712  and  _713
REMARK  279  A    between atoms: _722  and  _724
REMARK  280  A    between atoms: _724  and  _725
REMARK  281  A    between atoms: _724  and  _727
REMARK  282  A    between atoms: _727  and  _728
REMARK  283  A    between atoms: _738  and  _740
REMARK  284  A    between atoms: _740  and  _741
REMARK  285  A    between atoms: _740  and  _743
REMARK  286  A    between atoms: _743  and  _744
REMARK  287  A    between atoms: _747  and  _749
REMARK  288  A    between atoms: _749  and  _750
REMARK  289  A    between atoms: _753  and  _755
REMARK  290  A    between atoms: _755  and  _756
REMARK  291  A    between atoms: _755  and  _758
REMARK  292  A    between atoms: _758  and  _759
REMARK  293  A    between atoms: _762  and  _764
REMARK  294  A    between atoms: _764  and  _765
REMARK  295  A    between atoms: _764  and  _767
REMARK  296  A    between atoms: _767  and  _768
REMARK  297  A    between atoms: _768  and  _769
REMARK  298  A    between atoms: _769  and  _770
REMARK  299  A    between atoms: _770  and  _771
REMARK  300  A    between atoms: _775  and  _777
REMARK  301  A    between atoms: _777  and  _778
REMARK  302  A    between atoms: _777  and  _780
REMARK  303  A    between atoms: _780  and  _781
REMARK                            x       y       z     vdW  Elec       q    Type
REMARK                         _______ _______ _______ _____ _____    ______ ____
ROOT
ATOM      1  O   HOH     1     -25.412  -8.906 -17.727  0.00  0.00    +0.000 OA
ENDROOT
TORSDOF 0
REMARK  Name = ../refined-set-2016/1y3p/1y3p_pocket.pdb
REMARK  303 active torsions:
REMARK  status: ('A' for Active; 'I' for Inactive)
REMARK    1  A    between atoms: _1  and  _3
REMARK    2  A    between atoms: _3  and  _4
REMARK    3  A    between atoms: _3  and  _6
REMARK    4  A    between atoms: _6  and  _7
REMARK    5  A    between atoms: _12  and  _14
REMARK    6  A    between atoms: _14  and  _15
REMARK    7  A    between atoms: _14  and  _17
REMARK    8  A    between atoms: _17  and  _18
REMARK    9  A    between atoms: _24  and  _26
REMARK   10  A    between atoms: _26  and  _27
REMARK   11  A    between atoms: _26  and  _29
REMARK   12  A    between atoms: _29  and  _30
REMARK   13  A    between atoms: _30  and  _31
REMARK   14  A    between atoms: _31  and  _32
REMARK   15  A    between atoms: _41  and  _43
REMARK   16  A    between atoms: _43  and  _44
REMARK   17  A    between atoms: _43  and  _46
REMARK   18  A    between atoms: _46  and  _47
REMARK   19  A    between atoms: _50  and  _52
REMARK   20  A    between atoms: _52  and  _53
REMARK   21  A    between atoms: _52  and  _55
REMARK   22  A    between atoms: _55  and  _56
REMARK   23  A    between atoms: _56  and  _57
REMARK   24  A    between atoms: _57  and  _58
REMARK   25  A    between atoms: _58  and  _59
REMARK   26  A    between atoms: _63  and  _65
REMARK   27  A    between atoms: _65  and  _66
REMARK   28  A    between atoms: _65  and  _68
REMARK   29  A    between atoms: _68  and  _69
REMARK   30  A    between atoms: _79  and  _81
REMARK   31  A    between atoms: _81  and  _82
REMARK   32  A    between atoms: _81  and  _84
REMARK   33  A    between atoms: _84  and  _85
REMARK   34  A    between atoms: _88  and  _90
REMARK   35  A    between atoms: _90  and  _91
REMARK   36  A    between atoms: _90  and  _93
REMARK   37  A    between atoms: _93  and  _94
REMARK   38  A    between atoms: _99  and  _101
REMARK   39  A    between atoms: _101  and  _102
REMARK   40  A    between atoms: _101  and  _104
REMARK   41  A    between atoms: _104  and  _105
REMARK   42  A    between atoms: _107  and  _109
REMARK   43  A    between atoms: _109  and  _110
REMARK   44  A    between atoms: _109  and  _112
REMARK   45  A    between atoms: _112  and  _113
REMARK   46  A    between atoms: _113  and  _114
REMARK   47  A    between atoms: _119  and  _121
REMARK   48  A    between atoms: _121  and  _122
REMARK   49  A    between atoms: _121  and  _124
REMARK   50  A    between atoms: _124  and  _125
REMARK   51  A    between atoms: _125  and  _126
REMARK   52  A    between atoms: _129  and  _131
REMARK   53  A    between atoms: _131  and  _132
REMARK   54  A    between atoms: _134  and  _136
REMARK   55  A    between atoms: _136  and  _137
REMARK   56  A    between atoms: _136  and  _139
REMARK   57  A    between atoms: _139  and  _140
REMARK   58  A    between atoms: _143  and  _145
REMARK   59  A    between atoms: _145  and  _146
REMARK   60  A    between atoms: _145  and  _148
REMARK   61  A    between atoms: _148  and  _149
REMARK   62  A    between atoms: _154  and  _156
REMARK   63  A    between atoms: _156  and  _157
REMARK   64  A    between atoms: _156  and  _159
REMARK   65  A    between atoms: _159  and  _160
REMARK   66  A    between atoms: _163  and  _165
REMARK   67  A    between atoms: _165  and  _166
REMARK   68  A    between atoms: _165  and  _168
REMARK   69  A    between atoms: _168  and  _169
REMARK   70  A    between atoms: _169  and  _170
REMARK   71  A    between atoms: _170  and  _171
REMARK   72  A    between atoms: _171  and  _172
REMARK   73  A    between atoms: _176  and  _178
REMARK   74  A    between atoms: _178  and  _179
REMARK   75  A    between atoms: _178  and  _181
REMARK   76  A    between atoms: _181  and  _182
REMARK   77  A    between atoms: _187  and  _188
REMARK   78  A    between atoms: _191  and  _192
REMARK   79  A    between atoms: _197  and  _199
REMARK   80  A    between atoms: _199  and  _200
REMARK   81  A    between atoms: _199  and  _202
REMARK   82  A    between atoms: _202  and  _203
REMARK   83  A    between atoms: _206  and  _208
REMARK   84  A    between atoms: _208  and  _209
REMARK   85  A    between atoms: _211  and  _213
REMARK   86  A    between atoms: _213  and  _214
REMARK   87  A    between atoms: _213  and  _216
REMARK   88  A    between atoms: _219  and  _221
REMARK   89  A    between atoms: _221  and  _222
REMARK   90  A    between atoms: _221  and  _224
REMARK   91  A    between atoms: _224  and  _225
REMARK   92  A    between atoms: _227  and  _229
REMARK   93  A    between atoms: _229  and  _230
REMARK   94  A    between atoms: _229  and  _232
REMARK   95  A    between atoms: _232  and  _233
REMARK   96  A    between atoms: _233  and  _234
REMARK   97  A    between atoms: _234  and  _235
REMARK   98  A    between atoms: _244  and  _246
REMARK   99  A    between atoms: _246  and  _247
REMARK  100  A    between atoms: _246  and  _249
REMARK  101  A    between atoms: _249  and  _250
REMARK  102  A    between atoms: _255  and  _257
REMARK  103  A    between atoms: _257  and  _258
REMARK  104  A    between atoms: _257  and  _260
REMARK  105  A    between atoms: _260  and  _261
REMARK  106  A    between atoms: _261  and  _262
REMARK  107  A    between atoms: _262  and  _263
REMARK  108  A    between atoms: _272  and  _274
REMARK  109  A    between atoms: _274  and  _275
REMARK  110  A    between atoms: _274  and  _277
REMARK  111  A    between atoms: _277  and  _278
REMARK  112  A    between atoms: _282  and  _283
REMARK  113  A    between atoms: _288  and  _290
REMARK  114  A    between atoms: _290  and  _291
REMARK  115  A    between atoms: _290  and  _293
REMARK  116  A    between atoms: _293  and  _294
REMARK  117  A    between atoms: _294  and  _295
REMARK  118  A    between atoms: _298  and  _300
REMARK  119  A    between atoms: _300  and  _301
REMARK  120  A    between atoms: _300  and  _303
REMARK  121  A    between atoms: _303  and  _304
REMARK  122  A    between atoms: _304  and  _305
REMARK  123  A    between atoms: _308  and  _310
REMARK  124  A    between atoms: _310  and  _311
REMARK  125  A    between atoms: _310  and  _313
REMARK  126  A    between atoms: _313  and  _314
REMARK  127  A    between atoms: _319  and  _321
REMARK  128  A    between atoms: _321  and  _322
REMARK  129  A    between atoms: _321  and  _324
REMARK  130  A    between atoms: _324  and  _325
REMARK  131  A    between atoms: _328  and  _330
REMARK  132  A    between atoms: _330  and  _331
REMARK  133  A    between atoms: _330  and  _333
REMARK  134  A    between atoms: _333  and  _334
REMARK  135  A    between atoms: _344  and  _346
REMARK  136  A    between atoms: _346  and  _347
REMARK  137  A    between atoms: _346  and  _349
REMARK  138  A    between atoms: _349  and  _350
REMARK  139  A    between atoms: _350  and  _351
REMARK  140  A    between atoms: _353  and  _355
REMARK  141  A    between atoms: _355  and  _356
REMARK  142  A    between atoms: _355  and  _358
REMARK  143  A    between atoms: _358  and  _359
REMARK  144  A    between atoms: _359  and  _360
REMARK  145  A    between atoms: _360  and  _361
REMARK  146  A    between atoms: _361  and  _362
REMARK  147  A    between atoms: _366  and  _368
REMARK  148  A    between atoms: _368  and  _369
REMARK  149  A    between atoms: _372  and  _374
REMARK  150  A    between atoms: _374  and  _375
REMARK  151  A    between atoms: _374  and  _377
REMARK  152  A    between atoms: _377  and  _378
REMARK  153  A    between atoms: _378  and  _379
REMARK  154  A    between atoms: _379  and  _380
REMARK  155  A    between atoms: _389  and  _391
REMARK  156  A    between atoms: _391  and  _392
REMARK  157  A    between atoms: _391  and  _394
REMARK  158  A    between atoms: _394  and  _395
REMARK  159  A    between atoms: _398  and  _400
REMARK  160  A    between atoms: _400  and  _401
REMARK  161  A    between atoms: _400  and  _403
REMARK  162  A    between atoms: _403  and  _404
REMARK  163  A    between atoms: _414  and  _416
REMARK  164  A    between atoms: _416  and  _417
REMARK  165  A    between atoms: _416  and  _419
REMARK  166  A    between atoms: _419  and  _420
REMARK  167  A    between atoms: _426  and  _428
REMARK  168  A    between atoms: _428  and  _429
REMARK  169  A    between atoms: _432  and  _434
REMARK  170  A    between atoms: _434  and  _435
REMARK  171  A    between atoms: _434  and  _437
REMARK  172  A    between atoms: _437  and  _438
REMARK  173  A    between atoms: _440  and  _442
REMARK  174  A    between atoms: _442  and  _443
REMARK  175  A    between atoms: _442  and  _445
REMARK  176  A    between atoms: _445  and  _446
REMARK  177  A    between atoms: _449  and  _451
REMARK  178  A    between atoms: _451  and  _452
REMARK  179  A    between atoms: _455  and  _457
REMARK  180  A    between atoms: _457  and  _458
REMARK  181  A    between atoms: _457  and  _460
REMARK  182  A    between atoms: _460  and  _461
REMARK  183  A    between atoms: _464  and  _466
REMARK  184  A    between atoms: _466  and  _467
REMARK  185  A    between atoms: _466  and  _469
REMARK  186  A    between atoms: _469  and  _470
REMARK  187  A    between atoms: _473  and  _475
REMARK  188  A    between atoms: _475  and  _476
REMARK  189  A    between atoms: _475  and  _478
REMARK  190  A    between atoms: _478  and  _479
REMARK  191  A    between atoms: _479  and  _480
REMARK  192  A    between atoms: _480  and  _481
REMARK  193  A    between atoms: _490  and  _492
REMARK  194  A    between atoms: _492  and  _493
REMARK  195  A    between atoms: _492  and  _495
REMARK  196  A    between atoms: _495  and  _496
REMARK  197  A    between atoms: _496  and  _497
REMARK  198  A    between atoms: _502  and  _504
REMARK  199  A    between atoms: _504  and  _505
REMARK  200  A    between atoms: _504  and  _507
REMARK  201  A    between atoms: _507  and  _508
REMARK  202  A    between atoms: _508  and  _509
REMARK  203  A    between atoms: _509  and  _510
REMARK  204  A    between atoms: _520  and  _521
REMARK  205  A    between atoms: _526  and  _528
REMARK  206  A    between atoms: _528  and  _529
REMARK  207  A    between atoms: _528  and  _531
REMARK  208  A    between atoms: _531  and  _532
REMARK  209  A    between atoms: _535  and  _537
REMARK  210  A    between atoms: _537  and  _538
REMARK  211  A    between atoms: _537  and  _540
REMARK  212  A    between atoms: _540  and  _541
REMARK  213  A    between atoms: _547  and  _548
REMARK  214  A    between atoms: _553  and  _555
REMARK  215  A    between atoms: _555  and  _556
REMARK  216  A    between atoms: _555  and  _558
REMARK  217  A    between atoms: _561  and  _563
REMARK  218  A    between atoms: _563  and  _564
REMARK  219  A    between atoms: _563  and  _566
REMARK  220  A    between atoms: _566  and  _567
REMARK  221  A    between atoms: _572  and  _574
REMARK  222  A    between atoms: _574  and  _575
REMARK  223  A    between atoms: _574  and  _577
REMARK  224  A    between atoms: _577  and  _578
REMARK  225  A    between atoms: _583  and  _585
REMARK  226  A    between atoms: _585  and  _586
REMARK  227  A    between atoms: _585  and  _588
REMARK  228  A    between atoms: _588  and  _589
REMARK  229  A    between atoms: _589  and  _590
REMARK  230  A    between atoms: _592  and  _594
REMARK  231  A    between atoms: _594  and  _595
REMARK  232  A    between atoms: _594  and  _597
REMARK  233  A    between atoms: _597  and  _598
REMARK  234  A    between atoms: _603  and  _604
REMARK  235  A    between atoms: _606  and  _608
REMARK  236  A    between atoms: _608  and  _609
REMARK  237  A    between atoms: _608  and  _611
REMARK  238  A    between atoms: _611  and  _612
REMARK  239  A    between atoms: _612  and  _613
REMARK  240  A    between atoms: _618  and  _620
REMARK  241  A    between atoms: _620  and  _621
REMARK  242  A    between atoms: _620  and  _623
REMARK  243  A    between atoms: _623  and  _624
REMARK  244  A    between atoms: _628  and  _629
REMARK  245  A    between atoms: _634  and  _636
REMARK  246  A    between atoms: _636  and  _637
REMARK  247  A    between atoms: _636  and  _639
REMARK  248  A    between atoms: _639  and  _640
REMARK  249  A    between atoms: _646  and  _648
REMARK  250  A    between atoms: _648  and  _649
REMARK  251  A    between atoms: _648  and  _651
REMARK  252  A    between atoms: _651  and  _652
REMARK  253  A    between atoms: _652  and  _653
REMARK  254  A    between atoms: _658  and  _660
REMARK  255  A    between atoms: _660  and  _661
REMARK  256  A    between atoms: _660  and  _663
REMARK  257  A    between atoms: _663  and  _664
REMARK  258  A    between atoms: _667  and  _669
REMARK  259  A    between atoms: _669  and  _670
REMARK  260  A    between atoms: _669  and  _672
REMARK  261  A    between atoms: _672  and  _673
REMARK  262  A    between atoms: _678  and  _679
REMARK  263  A    between atoms: _681  and  _683
REMARK  264  A    between atoms: _683  and  _684
REMARK  265  A    between atoms: _683  and  _686
REMARK  266  A    between atoms: _686  and  _687
REMARK  267  A    between atoms: _692  and  _693
REMARK  268  A    between atoms: _695  and  _697
REMARK  269  A    between atoms: _697  and  _698
REMARK  270  A    between atoms: _697  and  _700
REMARK  271  A    between atoms: _700  and  _701
REMARK  272  A    between atoms: _701  and  _702
REMARK  273  A    between atoms: _705  and  _707
REMARK  274  A    between atoms: _707  and  _708
REMARK  275  A    between atoms: _707  and  _710
REMARK  276  A    between atoms: _710  and  _711
REMARK  277  A    between atoms: _711  and  _712
REMARK  278  A    between atoms: _712  and  _713
REMARK  279  A    between atoms: _722  and  _724
REMARK  280  A    between atoms: _724  and  _725
REMARK  281  A    between atoms: _724  and  _727
REMARK  282  A    between atoms: _727  and  _728
REMARK  283  A    between atoms: _738  and  _740
REMARK  284  A    between atoms: _740  and  _741
REMARK  285  A    between atoms: _740  and  _743
REMARK  286  A    between atoms: _743  and  _744
REMARK  287  A    between atoms: _747  and  _749
REMARK  288  A    between atoms: _749  and  _750
REMARK  289  A    between atoms: _753  and  _755
REMARK  290  A    between atoms: _755  and  _756
REMARK  291  A    between atoms: _755  and  _758
REMARK  292  A    between atoms: _758  and  _759
REMARK  293  A    between atoms: _762  and  _764
REMARK  294  A    between atoms: _764  and  _765
REMARK  295  A    between atoms: _764  and  _767
REMARK  296  A    between atoms: _767  and  _768
REMARK  297  A    between atoms: _768  and  _769
REMARK  298  A    between atoms: _769  and  _770
REMARK  299  A    between atoms: _770  and  _771
REMARK  300  A    between atoms: _775  and  _777
REMARK  301  A    between atoms: _777  and  _778
REMARK  302  A    between atoms: _777  and  _780
REMARK  303  A    between atoms: _780  and  _781
REMARK                            x       y       z     vdW  Elec       q    Type
REMARK                         _______ _______ _______ _____ _____    ______ ____
ROOT
ATOM      1  O   HOH     1     -22.306  -3.749  -7.619  0.00  0.00    +0.000 OA
ENDROOT
TORSDOF 0
REMARK  Name = ../refined-set-2016/1y3p/1y3p_pocket.pdb
REMARK  303 active torsions:
REMARK  status: ('A' for Active; 'I' for Inactive)
REMARK    1  A    between atoms: _1  and  _3
REMARK    2  A    between atoms: _3  and  _4
REMARK    3  A    between atoms: _3  and  _6
REMARK    4  A    between atoms: _6  and  _7
REMARK    5  A    between atoms: _12  and  _14
REMARK    6  A    between atoms: _14  and  _15
REMARK    7  A    between atoms: _14  and  _17
REMARK    8  A    between atoms: _17  and  _18
REMARK    9  A    between atoms: _24  and  _26
REMARK   10  A    between atoms: _26  and  _27
REMARK   11  A    between atoms: _26  and  _29
REMARK   12  A    between atoms: _29  and  _30
REMARK   13  A    between atoms: _30  and  _31
REMARK   14  A    between atoms: _31  and  _32
REMARK   15  A    between atoms: _41  and  _43
REMARK   16  A    between atoms: _43  and  _44
REMARK   17  A    between atoms: _43  and  _46
REMARK   18  A    between atoms: _46  and  _47
REMARK   19  A    between atoms: _50  and  _52
REMARK   20  A    between atoms: _52  and  _53
REMARK   21  A    between atoms: _52  and  _55
REMARK   22  A    between atoms: _55  and  _56
REMARK   23  A    between atoms: _56  and  _57
REMARK   24  A    between atoms: _57  and  _58
REMARK   25  A    between atoms: _58  and  _59
REMARK   26  A    between atoms: _63  and  _65
REMARK   27  A    between atoms: _65  and  _66
REMARK   28  A    between atoms: _65  and  _68
REMARK   29  A    between atoms: _68  and  _69
REMARK   30  A    between atoms: _79  and  _81
REMARK   31  A    between atoms: _81  and  _82
REMARK   32  A    between atoms: _81  and  _84
REMARK   33  A    between atoms: _84  and  _85
REMARK   34  A    between atoms: _88  and  _90
REMARK   35  A    between atoms: _90  and  _91
REMARK   36  A    between atoms: _90  and  _93
REMARK   37  A    between atoms: _93  and  _94
REMARK   38  A    between atoms: _99  and  _101
REMARK   39  A    between atoms: _101  and  _102
REMARK   40  A    between atoms: _101  and  _104
REMARK   41  A    between atoms: _104  and  _105
REMARK   42  A    between atoms: _107  and  _109
REMARK   43  A    between atoms: _109  and  _110
REMARK   44  A    between atoms: _109  and  _112
REMARK   45  A    between atoms: _112  and  _113
REMARK   46  A    between atoms: _113  and  _114
REMARK   47  A    between atoms: _119  and  _121
REMARK   48  A    between atoms: _121  and  _122
REMARK   49  A    between atoms: _121  and  _124
REMARK   50  A    between atoms: _124  and  _125
REMARK   51  A    between atoms: _125  and  _126
REMARK   52  A    between atoms: _129  and  _131
REMARK   53  A    between atoms: _131  and  _132
REMARK   54  A    between atoms: _134  and  _136
REMARK   55  A    between atoms: _136  and  _137
REMARK   56  A    between atoms: _136  and  _139
REMARK   57  A    between atoms: _139  and  _140
REMARK   58  A    between atoms: _143  and  _145
REMARK   59  A    between atoms: _145  and  _146
REMARK   60  A    between atoms: _145  and  _148
REMARK   61  A    between atoms: _148  and  _149
REMARK   62  A    between atoms: _154  and  _156
REMARK   63  A    between atoms: _156  and  _157
REMARK   64  A    between atoms: _156  and  _159
REMARK   65  A    between atoms: _159  and  _160
REMARK   66  A    between atoms: _163  and  _165
REMARK   67  A    between atoms: _165  and  _166
REMARK   68  A    between atoms: _165  and  _168
REMARK   69  A    between atoms: _168  and  _169
REMARK   70  A    between atoms: _169  and  _170
REMARK   71  A    between atoms: _170  and  _171
REMARK   72  A    between atoms: _171  and  _172
REMARK   73  A    between atoms: _176  and  _178
REMARK   74  A    between atoms: _178  and  _179
REMARK   75  A    between atoms: _178  and  _181
REMARK   76  A    between atoms: _181  and  _182
REMARK   77  A    between atoms: _187  and  _188
REMARK   78  A    between atoms: _191  and  _192
REMARK   79  A    between atoms: _197  and  _199
REMARK   80  A    between atoms: _199  and  _200
REMARK   81  A    between atoms: _199  and  _202
REMARK   82  A    between atoms: _202  and  _203
REMARK   83  A    between atoms: _206  and  _208
REMARK   84  A    between atoms: _208  and  _209
REMARK   85  A    between atoms: _211  and  _213
REMARK   86  A    between atoms: _213  and  _214
REMARK   87  A    between atoms: _213  and  _216
REMARK   88  A    between atoms: _219  and  _221
REMARK   89  A    between atoms: _221  and  _222
REMARK   90  A    between atoms: _221  and  _224
REMARK   91  A    between atoms: _224  and  _225
REMARK   92  A    between atoms: _227  and  _229
REMARK   93  A    between atoms: _229  and  _230
REMARK   94  A    between atoms: _229  and  _232
REMARK   95  A    between atoms: _232  and  _233
REMARK   96  A    between atoms: _233  and  _234
REMARK   97  A    between atoms: _234  and  _235
REMARK   98  A    between atoms: _244  and  _246
REMARK   99  A    between atoms: _246  and  _247
REMARK  100  A    between atoms: _246  and  _249
REMARK  101  A    between atoms: _249  and  _250
REMARK  102  A    between atoms: _255  and  _257
REMARK  103  A    between atoms: _257  and  _258
REMARK  104  A    between atoms: _257  and  _260
REMARK  105  A    between atoms: _260  and  _261
REMARK  106  A    between atoms: _261  and  _262
REMARK  107  A    between atoms: _262  and  _263
REMARK  108  A    between atoms: _272  and  _274
REMARK  109  A    between atoms: _274  and  _275
REMARK  110  A    between atoms: _274  and  _277
REMARK  111  A    between atoms: _277  and  _278
REMARK  112  A    between atoms: _282  and  _283
REMARK  113  A    between atoms: _288  and  _290
REMARK  114  A    between atoms: _290  and  _291
REMARK  115  A    between atoms: _290  and  _293
REMARK  116  A    between atoms: _293  and  _294
REMARK  117  A    between atoms: _294  and  _295
REMARK  118  A    between atoms: _298  and  _300
REMARK  119  A    between atoms: _300  and  _301
REMARK  120  A    between atoms: _300  and  _303
REMARK  121  A    between atoms: _303  and  _304
REMARK  122  A    between atoms: _304  and  _305
REMARK  123  A    between atoms: _308  and  _310
REMARK  124  A    between atoms: _310  and  _311
REMARK  125  A    between atoms: _310  and  _313
REMARK  126  A    between atoms: _313  and  _314
REMARK  127  A    between atoms: _319  and  _321
REMARK  128  A    between atoms: _321  and  _322
REMARK  129  A    between atoms: _321  and  _324
REMARK  130  A    between atoms: _324  and  _325
REMARK  131  A    between atoms: _328  and  _330
REMARK  132  A    between atoms: _330  and  _331
REMARK  133  A    between atoms: _330  and  _333
REMARK  134  A    between atoms: _333  and  _334
REMARK  135  A    between atoms: _344  and  _346
REMARK  136  A    between atoms: _346  and  _347
REMARK  137  A    between atoms: _346  and  _349
REMARK  138  A    between atoms: _349  and  _350
REMARK  139  A    between atoms: _350  and  _351
REMARK  140  A    between atoms: _353  and  _355
REMARK  141  A    between atoms: _355  and  _356
REMARK  142  A    between atoms: _355  and  _358
REMARK  143  A    between atoms: _358  and  _359
REMARK  144  A    between atoms: _359  and  _360
REMARK  145  A    between atoms: _360  and  _361
REMARK  146  A    between atoms: _361  and  _362
REMARK  147  A    between atoms: _366  and  _368
REMARK  148  A    between atoms: _368  and  _369
REMARK  149  A    between atoms: _372  and  _374
REMARK  150  A    between atoms: _374  and  _375
REMARK  151  A    between atoms: _374  and  _377
REMARK  152  A    between atoms: _377  and  _378
REMARK  153  A    between atoms: _378  and  _379
REMARK  154  A    between atoms: _379  and  _380
REMARK  155  A    between atoms: _389  and  _391
REMARK  156  A    between atoms: _391  and  _392
REMARK  157  A    between atoms: _391  and  _394
REMARK  158  A    between atoms: _394  and  _395
REMARK  159  A    between atoms: _398  and  _400
REMARK  160  A    between atoms: _400  and  _401
REMARK  161  A    between atoms: _400  and  _403
REMARK  162  A    between atoms: _403  and  _404
REMARK  163  A    between atoms: _414  and  _416
REMARK  164  A    between atoms: _416  and  _417
REMARK  165  A    between atoms: _416  and  _419
REMARK  166  A    between atoms: _419  and  _420
REMARK  167  A    between atoms: _426  and  _428
REMARK  168  A    between atoms: _428  and  _429
REMARK  169  A    between atoms: _432  and  _434
REMARK  170  A    between atoms: _434  and  _435
REMARK  171  A    between atoms: _434  and  _437
REMARK  172  A    between atoms: _437  and  _438
REMARK  173  A    between atoms: _440  and  _442
REMARK  174  A    between atoms: _442  and  _443
REMARK  175  A    between atoms: _442  and  _445
REMARK  176  A    between atoms: _445  and  _446
REMARK  177  A    between atoms: _449  and  _451
REMARK  178  A    between atoms: _451  and  _452
REMARK  179  A    between atoms: _455  and  _457
REMARK  180  A    between atoms: _457  and  _458
REMARK  181  A    between atoms: _457  and  _460
REMARK  182  A    between atoms: _460  and  _461
REMARK  183  A    between atoms: _464  and  _466
REMARK  184  A    between atoms: _466  and  _467
REMARK  185  A    between atoms: _466  and  _469
REMARK  186  A    between atoms: _469  and  _470
REMARK  187  A    between atoms: _473  and  _475
REMARK  188  A    between atoms: _475  and  _476
REMARK  189  A    between atoms: _475  and  _478
REMARK  190  A    between atoms: _478  and  _479
REMARK  191  A    between atoms: _479  and  _480
REMARK  192  A    between atoms: _480  and  _481
REMARK  193  A    between atoms: _490  and  _492
REMARK  194  A    between atoms: _492  and  _493
REMARK  195  A    between atoms: _492  and  _495
REMARK  196  A    between atoms: _495  and  _496
REMARK  197  A    between atoms: _496  and  _497
REMARK  198  A    between atoms: _502  and  _504
REMARK  199  A    between atoms: _504  and  _505
REMARK  200  A    between atoms: _504  and  _507
REMARK  201  A    between atoms: _507  and  _508
REMARK  202  A    between atoms: _508  and  _509
REMARK  203  A    between atoms: _509  and  _510
REMARK  204  A    between atoms: _520  and  _521
REMARK  205  A    between atoms: _526  and  _528
REMARK  206  A    between atoms: _528  and  _529
REMARK  207  A    between atoms: _528  and  _531
REMARK  208  A    between atoms: _531  and  _532
REMARK  209  A    between atoms: _535  and  _537
REMARK  210  A    between atoms: _537  and  _538
REMARK  211  A    between atoms: _537  and  _540
REMARK  212  A    between atoms: _540  and  _541
REMARK  213  A    between atoms: _547  and  _548
REMARK  214  A    between atoms: _553  and  _555
REMARK  215  A    between atoms: _555  and  _556
REMARK  216  A    between atoms: _555  and  _558
REMARK  217  A    between atoms: _561  and  _563
REMARK  218  A    between atoms: _563  and  _564
REMARK  219  A    between atoms: _563  and  _566
REMARK  220  A    between atoms: _566  and  _567
REMARK  221  A    between atoms: _572  and  _574
REMARK  222  A    between atoms: _574  and  _575
REMARK  223  A    between atoms: _574  and  _577
REMARK  224  A    between atoms: _577  and  _578
REMARK  225  A    between atoms: _583  and  _585
REMARK  226  A    between atoms: _585  and  _586
REMARK  227  A    between atoms: _585  and  _588
REMARK  228  A    between atoms: _588  and  _589
REMARK  229  A    between atoms: _589  and  _590
REMARK  230  A    between atoms: _592  and  _594
REMARK  231  A    between atoms: _594  and  _595
REMARK  232  A    between atoms: _594  and  _597
REMARK  233  A    between atoms: _597  and  _598
REMARK  234  A    between atoms: _603  and  _604
REMARK  235  A    between atoms: _606  and  _608
REMARK  236  A    between atoms: _608  and  _609
REMARK  237  A    between atoms: _608  and  _611
REMARK  238  A    between atoms: _611  and  _612
REMARK  239  A    between atoms: _612  and  _613
REMARK  240  A    between atoms: _618  and  _620
REMARK  241  A    between atoms: _620  and  _621
REMARK  242  A    between atoms: _620  and  _623
REMARK  243  A    between atoms: _623  and  _624
REMARK  244  A    between atoms: _628  and  _629
REMARK  245  A    between atoms: _634  and  _636
REMARK  246  A    between atoms: _636  and  _637
REMARK  247  A    between atoms: _636  and  _639
REMARK  248  A    between atoms: _639  and  _640
REMARK  249  A    between atoms: _646  and  _648
REMARK  250  A    between atoms: _648  and  _649
REMARK  251  A    between atoms: _648  and  _651
REMARK  252  A    between atoms: _651  and  _652
REMARK  253  A    between atoms: _652  and  _653
REMARK  254  A    between atoms: _658  and  _660
REMARK  255  A    between atoms: _660  and  _661
REMARK  256  A    between atoms: _660  and  _663
REMARK  257  A    between atoms: _663  and  _664
REMARK  258  A    between atoms: _667  and  _669
REMARK  259  A    between atoms: _669  and  _670
REMARK  260  A    between atoms: _669  and  _672
REMARK  261  A    between atoms: _672  and  _673
REMARK  262  A    between atoms: _678  and  _679
REMARK  263  A    between atoms: _681  and  _683
REMARK  264  A    between atoms: _683  and  _684
REMARK  265  A    between atoms: _683  and  _686
REMARK  266  A    between atoms: _686  and  _687
REMARK  267  A    between atoms: _692  and  _693
REMARK  268  A    between atoms: _695  and  _697
REMARK  269  A    between atoms: _697  and  _698
REMARK  270  A    between atoms: _697  and  _700
REMARK  271  A    between atoms: _700  and  _701
REMARK  272  A    between atoms: _701  and  _702
REMARK  273  A    between atoms: _705  and  _707
REMARK  274  A    between atoms: _707  and  _708
REMARK  275  A    between atoms: _707  and  _710
REMARK  276  A    between atoms: _710  and  _711
REMARK  277  A    between atoms: _711  and  _712
REMARK  278  A    between atoms: _712  and  _713
REMARK  279  A    between atoms: _722  and  _724
REMARK  280  A    between atoms: _724  and  _725
REMARK  281  A    between atoms: _724  and  _727
REMARK  282  A    between atoms: _727  and  _728
REMARK  283  A    between atoms: _738  and  _740
REMARK  284  A    between atoms: _740  and  _741
REMARK  285  A    between atoms: _740  and  _743
REMARK  286  A    between atoms: _743  and  _744
REMARK  287  A    between atoms: _747  and  _749
REMARK  288  A    between atoms: _749  and  _750
REMARK  289  A    between atoms: _753  and  _755
REMARK  290  A    between atoms: _755  and  _756
REMARK  291  A    between atoms: _755  and  _758
REMARK  292  A    between atoms: _758  and  _759
REMARK  293  A    between atoms: _762  and  _764
REMARK  294  A    between atoms: _764  and  _765
REMARK  295  A    between atoms: _764  and  _767
REMARK  296  A    between atoms: _767  and  _768
REMARK  297  A    between atoms: _768  and  _769
REMARK  298  A    between atoms: _769  and  _770
REMARK  299  A    between atoms: _770  and  _771
REMARK  300  A    between atoms: _775  and  _777
REMARK  301  A    between atoms: _777  and  _778
REMARK  302  A    between atoms: _777  and  _780
REMARK  303  A    between atoms: _780  and  _781
REMARK                            x       y       z     vdW  Elec       q    Type
REMARK                         _______ _______ _______ _____ _____    ______ ____
ROOT
ATOM      1  O   HOH     1     -21.758  -4.489 -22.753  0.00  0.00    +0.000 OA
ENDROOT
TORSDOF 0
REMARK  Name = ../refined-set-2016/1y3p/1y3p_pocket.pdb
REMARK  303 active torsions:
REMARK  status: ('A' for Active; 'I' for Inactive)
REMARK    1  A    between atoms: _1  and  _3
REMARK    2  A    between atoms: _3  and  _4
REMARK    3  A    between atoms: _3  and  _6
REMARK    4  A    between atoms: _6  and  _7
REMARK    5  A    between atoms: _12  and  _14
REMARK    6  A    between atoms: _14  and  _15
REMARK    7  A    between atoms: _14  and  _17
REMARK    8  A    between atoms: _17  and  _18
REMARK    9  A    between atoms: _24  and  _26
REMARK   10  A    between atoms: _26  and  _27
REMARK   11  A    between atoms: _26  and  _29
REMARK   12  A    between atoms: _29  and  _30
REMARK   13  A    between atoms: _30  and  _31
REMARK   14  A    between atoms: _31  and  _32
REMARK   15  A    between atoms: _41  and  _43
REMARK   16  A    between atoms: _43  and  _44
REMARK   17  A    between atoms: _43  and  _46
REMARK   18  A    between atoms: _46  and  _47
REMARK   19  A    between atoms: _50  and  _52
REMARK   20  A    between atoms: _52  and  _53
REMARK   21  A    between atoms: _52  and  _55
REMARK   22  A    between atoms: _55  and  _56
REMARK   23  A    between atoms: _56  and  _57
REMARK   24  A    between atoms: _57  and  _58
REMARK   25  A    between atoms: _58  and  _59
REMARK   26  A    between atoms: _63  and  _65
REMARK   27  A    between atoms: _65  and  _66
REMARK   28  A    between atoms: _65  and  _68
REMARK   29  A    between atoms: _68  and  _69
REMARK   30  A    between atoms: _79  and  _81
REMARK   31  A    between atoms: _81  and  _82
REMARK   32  A    between atoms: _81  and  _84
REMARK   33  A    between atoms: _84  and  _85
REMARK   34  A    between atoms: _88  and  _90
REMARK   35  A    between atoms: _90  and  _91
REMARK   36  A    between atoms: _90  and  _93
REMARK   37  A    between atoms: _93  and  _94
REMARK   38  A    between atoms: _99  and  _101
REMARK   39  A    between atoms: _101  and  _102
REMARK   40  A    between atoms: _101  and  _104
REMARK   41  A    between atoms: _104  and  _105
REMARK   42  A    between atoms: _107  and  _109
REMARK   43  A    between atoms: _109  and  _110
REMARK   44  A    between atoms: _109  and  _112
REMARK   45  A    between atoms: _112  and  _113
REMARK   46  A    between atoms: _113  and  _114
REMARK   47  A    between atoms: _119  and  _121
REMARK   48  A    between atoms: _121  and  _122
REMARK   49  A    between atoms: _121  and  _124
REMARK   50  A    between atoms: _124  and  _125
REMARK   51  A    between atoms: _125  and  _126
REMARK   52  A    between atoms: _129  and  _131
REMARK   53  A    between atoms: _131  and  _132
REMARK   54  A    between atoms: _134  and  _136
REMARK   55  A    between atoms: _136  and  _137
REMARK   56  A    between atoms: _136  and  _139
REMARK   57  A    between atoms: _139  and  _140
REMARK   58  A    between atoms: _143  and  _145
REMARK   59  A    between atoms: _145  and  _146
REMARK   60  A    between atoms: _145  and  _148
REMARK   61  A    between atoms: _148  and  _149
REMARK   62  A    between atoms: _154  and  _156
REMARK   63  A    between atoms: _156  and  _157
REMARK   64  A    between atoms: _156  and  _159
REMARK   65  A    between atoms: _159  and  _160
REMARK   66  A    between atoms: _163  and  _165
REMARK   67  A    between atoms: _165  and  _166
REMARK   68  A    between atoms: _165  and  _168
REMARK   69  A    between atoms: _168  and  _169
REMARK   70  A    between atoms: _169  and  _170
REMARK   71  A    between atoms: _170  and  _171
REMARK   72  A    between atoms: _171  and  _172
REMARK   73  A    between atoms: _176  and  _178
REMARK   74  A    between atoms: _178  and  _179
REMARK   75  A    between atoms: _178  and  _181
REMARK   76  A    between atoms: _181  and  _182
REMARK   77  A    between atoms: _187  and  _188
REMARK   78  A    between atoms: _191  and  _192
REMARK   79  A    between atoms: _197  and  _199
REMARK   80  A    between atoms: _199  and  _200
REMARK   81  A    between atoms: _199  and  _202
REMARK   82  A    between atoms: _202  and  _203
REMARK   83  A    between atoms: _206  and  _208
REMARK   84  A    between atoms: _208  and  _209
REMARK   85  A    between atoms: _211  and  _213
REMARK   86  A    between atoms: _213  and  _214
REMARK   87  A    between atoms: _213  and  _216
REMARK   88  A    between atoms: _219  and  _221
REMARK   89  A    between atoms: _221  and  _222
REMARK   90  A    between atoms: _221  and  _224
REMARK   91  A    between atoms: _224  and  _225
REMARK   92  A    between atoms: _227  and  _229
REMARK   93  A    between atoms: _229  and  _230
REMARK   94  A    between atoms: _229  and  _232
REMARK   95  A    between atoms: _232  and  _233
REMARK   96  A    between atoms: _233  and  _234
REMARK   97  A    between atoms: _234  and  _235
REMARK   98  A    between atoms: _244  and  _246
REMARK   99  A    between atoms: _246  and  _247
REMARK  100  A    between atoms: _246  and  _249
REMARK  101  A    between atoms: _249  and  _250
REMARK  102  A    between atoms: _255  and  _257
REMARK  103  A    between atoms: _257  and  _258
REMARK  104  A    between atoms: _257  and  _260
REMARK  105  A    between atoms: _260  and  _261
REMARK  106  A    between atoms: _261  and  _262
REMARK  107  A    between atoms: _262  and  _263
REMARK  108  A    between atoms: _272  and  _274
REMARK  109  A    between atoms: _274  and  _275
REMARK  110  A    between atoms: _274  and  _277
REMARK  111  A    between atoms: _277  and  _278
REMARK  112  A    between atoms: _282  and  _283
REMARK  113  A    between atoms: _288  and  _290
REMARK  114  A    between atoms: _290  and  _291
REMARK  115  A    between atoms: _290  and  _293
REMARK  116  A    between atoms: _293  and  _294
REMARK  117  A    between atoms: _294  and  _295
REMARK  118  A    between atoms: _298  and  _300
REMARK  119  A    between atoms: _300  and  _301
REMARK  120  A    between atoms: _300  and  _303
REMARK  121  A    between atoms: _303  and  _304
REMARK  122  A    between atoms: _304  and  _305
REMARK  123  A    between atoms: _308  and  _310
REMARK  124  A    between atoms: _310  and  _311
REMARK  125  A    between atoms: _310  and  _313
REMARK  126  A    between atoms: _313  and  _314
REMARK  127  A    between atoms: _319  and  _321
REMARK  128  A    between atoms: _321  and  _322
REMARK  129  A    between atoms: _321  and  _324
REMARK  130  A    between atoms: _324  and  _325
REMARK  131  A    between atoms: _328  and  _330
REMARK  132  A    between atoms: _330  and  _331
REMARK  133  A    between atoms: _330  and  _333
REMARK  134  A    between atoms: _333  and  _334
REMARK  135  A    between atoms: _344  and  _346
REMARK  136  A    between atoms: _346  and  _347
REMARK  137  A    between atoms: _346  and  _349
REMARK  138  A    between atoms: _349  and  _350
REMARK  139  A    between atoms: _350  and  _351
REMARK  140  A    between atoms: _353  and  _355
REMARK  141  A    between atoms: _355  and  _356
REMARK  142  A    between atoms: _355  and  _358
REMARK  143  A    between atoms: _358  and  _359
REMARK  144  A    between atoms: _359  and  _360
REMARK  145  A    between atoms: _360  and  _361
REMARK  146  A    between atoms: _361  and  _362
REMARK  147  A    between atoms: _366  and  _368
REMARK  148  A    between atoms: _368  and  _369
REMARK  149  A    between atoms: _372  and  _374
REMARK  150  A    between atoms: _374  and  _375
REMARK  151  A    between atoms: _374  and  _377
REMARK  152  A    between atoms: _377  and  _378
REMARK  153  A    between atoms: _378  and  _379
REMARK  154  A    between atoms: _379  and  _380
REMARK  155  A    between atoms: _389  and  _391
REMARK  156  A    between atoms: _391  and  _392
REMARK  157  A    between atoms: _391  and  _394
REMARK  158  A    between atoms: _394  and  _395
REMARK  159  A    between atoms: _398  and  _400
REMARK  160  A    between atoms: _400  and  _401
REMARK  161  A    between atoms: _400  and  _403
REMARK  162  A    between atoms: _403  and  _404
REMARK  163  A    between atoms: _414  and  _416
REMARK  164  A    between atoms: _416  and  _417
REMARK  165  A    between atoms: _416  and  _419
REMARK  166  A    between atoms: _419  and  _420
REMARK  167  A    between atoms: _426  and  _428
REMARK  168  A    between atoms: _428  and  _429
REMARK  169  A    between atoms: _432  and  _434
REMARK  170  A    between atoms: _434  and  _435
REMARK  171  A    between atoms: _434  and  _437
REMARK  172  A    between atoms: _437  and  _438
REMARK  173  A    between atoms: _440  and  _442
REMARK  174  A    between atoms: _442  and  _443
REMARK  175  A    between atoms: _442  and  _445
REMARK  176  A    between atoms: _445  and  _446
REMARK  177  A    between atoms: _449  and  _451
REMARK  178  A    between atoms: _451  and  _452
REMARK  179  A    between atoms: _455  and  _457
REMARK  180  A    between atoms: _457  and  _458
REMARK  181  A    between atoms: _457  and  _460
REMARK  182  A    between atoms: _460  and  _461
REMARK  183  A    between atoms: _464  and  _466
REMARK  184  A    between atoms: _466  and  _467
REMARK  185  A    between atoms: _466  and  _469
REMARK  186  A    between atoms: _469  and  _470
REMARK  187  A    between atoms: _473  and  _475
REMARK  188  A    between atoms: _475  and  _476
REMARK  189  A    between atoms: _475  and  _478
REMARK  190  A    between atoms: _478  and  _479
REMARK  191  A    between atoms: _479  and  _480
REMARK  192  A    between atoms: _480  and  _481
REMARK  193  A    between atoms: _490  and  _492
REMARK  194  A    between atoms: _492  and  _493
REMARK  195  A    between atoms: _492  and  _495
REMARK  196  A    between atoms: _495  and  _496
REMARK  197  A    between atoms: _496  and  _497
REMARK  198  A    between atoms: _502  and  _504
REMARK  199  A    between atoms: _504  and  _505
REMARK  200  A    between atoms: _504  and  _507
REMARK  201  A    between atoms: _507  and  _508
REMARK  202  A    between atoms: _508  and  _509
REMARK  203  A    between atoms: _509  and  _510
REMARK  204  A    between atoms: _520  and  _521
REMARK  205  A    between atoms: _526  and  _528
REMARK  206  A    between atoms: _528  and  _529
REMARK  207  A    between atoms: _528  and  _531
REMARK  208  A    between atoms: _531  and  _532
REMARK  209  A    between atoms: _535  and  _537
REMARK  210  A    between atoms: _537  and  _538
REMARK  211  A    between atoms: _537  and  _540
REMARK  212  A    between atoms: _540  and  _541
REMARK  213  A    between atoms: _547  and  _548
REMARK  214  A    between atoms: _553  and  _555
REMARK  215  A    between atoms: _555  and  _556
REMARK  216  A    between atoms: _555  and  _558
REMARK  217  A    between atoms: _561  and  _563
REMARK  218  A    between atoms: _563  and  _564
REMARK  219  A    between atoms: _563  and  _566
REMARK  220  A    between atoms: _566  and  _567
REMARK  221  A    between atoms: _572  and  _574
REMARK  222  A    between atoms: _574  and  _575
REMARK  223  A    between atoms: _574  and  _577
REMARK  224  A    between atoms: _577  and  _578
REMARK  225  A    between atoms: _583  and  _585
REMARK  226  A    between atoms: _585  and  _586
REMARK  227  A    between atoms: _585  and  _588
REMARK  228  A    between atoms: _588  and  _589
REMARK  229  A    between atoms: _589  and  _590
REMARK  230  A    between atoms: _592  and  _594
REMARK  231  A    between atoms: _594  and  _595
REMARK  232  A    between atoms: _594  and  _597
REMARK  233  A    between atoms: _597  and  _598
REMARK  234  A    between atoms: _603  and  _604
REMARK  235  A    between atoms: _606  and  _608
REMARK  236  A    between atoms: _608  and  _609
REMARK  237  A    between atoms: _608  and  _611
REMARK  238  A    between atoms: _611  and  _612
REMARK  239  A    between atoms: _612  and  _613
REMARK  240  A    between atoms: _618  and  _620
REMARK  241  A    between atoms: _620  and  _621
REMARK  242  A    between atoms: _620  and  _623
REMARK  243  A    between atoms: _623  and  _624
REMARK  244  A    between atoms: _628  and  _629
REMARK  245  A    between atoms: _634  and  _636
REMARK  246  A    between atoms: _636  and  _637
REMARK  247  A    between atoms: _636  and  _639
REMARK  248  A    between atoms: _639  and  _640
REMARK  249  A    between atoms: _646  and  _648
REMARK  250  A    between atoms: _648  and  _649
REMARK  251  A    between atoms: _648  and  _651
REMARK  252  A    between atoms: _651  and  _652
REMARK  253  A    between atoms: _652  and  _653
REMARK  254  A    between atoms: _658  and  _660
REMARK  255  A    between atoms: _660  and  _661
REMARK  256  A    between atoms: _660  and  _663
REMARK  257  A    between atoms: _663  and  _664
REMARK  258  A    between atoms: _667  and  _669
REMARK  259  A    between atoms: _669  and  _670
REMARK  260  A    between atoms: _669  and  _672
REMARK  261  A    between atoms: _672  and  _673
REMARK  262  A    between atoms: _678  and  _679
REMARK  263  A    between atoms: _681  and  _683
REMARK  264  A    between atoms: _683  and  _684
REMARK  265  A    between atoms: _683  and  _686
REMARK  266  A    between atoms: _686  and  _687
REMARK  267  A    between atoms: _692  and  _693
REMARK  268  A    between atoms: _695  and  _697
REMARK  269  A    between atoms: _697  and  _698
REMARK  270  A    between atoms: _697  and  _700
REMARK  271  A    between atoms: _700  and  _701
REMARK  272  A    between atoms: _701  and  _702
REMARK  273  A    between atoms: _705  and  _707
REMARK  274  A    between atoms: _707  and  _708
REMARK  275  A    between atoms: _707  and  _710
REMARK  276  A    between atoms: _710  and  _711
REMARK  277  A    between atoms: _711  and  _712
REMARK  278  A    between atoms: _712  and  _713
REMARK  279  A    between atoms: _722  and  _724
REMARK  280  A    between atoms: _724  and  _725
REMARK  281  A    between atoms: _724  and  _727
REMARK  282  A    between atoms: _727  and  _728
REMARK  283  A    between atoms: _738  and  _740
REMARK  284  A    between atoms: _740  and  _741
REMARK  285  A    between atoms: _740  and  _743
REMARK  286  A    between atoms: _743  and  _744
REMARK  287  A    between atoms: _747  and  _749
REMARK  288  A    between atoms: _749  and  _750
REMARK  289  A    between atoms: _753  and  _755
REMARK  290  A    between atoms: _755  and  _756
REMARK  291  A    between atoms: _755  and  _758
REMARK  292  A    between atoms: _758  and  _759
REMARK  293  A    between atoms: _762  and  _764
REMARK  294  A    between atoms: _764  and  _765
REMARK  295  A    between atoms: _764  and  _767
REMARK  296  A    between atoms: _767  and  _768
REMARK  297  A    between atoms: _768  and  _769
REMARK  298  A    between atoms: _769  and  _770
REMARK  299  A    between atoms: _770  and  _771
REMARK  300  A    between atoms: _775  and  _777
REMARK  301  A    between atoms: _777  and  _778
REMARK  302  A    between atoms: _777  and  _780
REMARK  303  A    between atoms: _780  and  _781
REMARK                            x       y       z     vdW  Elec       q    Type
REMARK                         _______ _______ _______ _____ _____    ______ ____
ROOT
ATOM      1  O   HOH     1     -26.983  -2.997 -12.205  0.00  0.00    +0.000 OA
ENDROOT
TORSDOF 0
REMARK  Name = ../refined-set-2016/1y3p/1y3p_pocket.pdb
REMARK  303 active torsions:
REMARK  status: ('A' for Active; 'I' for Inactive)
REMARK    1  A    between atoms: _1  and  _3
REMARK    2  A    between atoms: _3  and  _4
REMARK    3  A    between atoms: _3  and  _6
REMARK    4  A    between atoms: _6  and  _7
REMARK    5  A    between atoms: _12  and  _14
REMARK    6  A    between atoms: _14  and  _15
REMARK    7  A    between atoms: _14  and  _17
REMARK    8  A    between atoms: _17  and  _18
REMARK    9  A    between atoms: _24  and  _26
REMARK   10  A    between atoms: _26  and  _27
REMARK   11  A    between atoms: _26  and  _29
REMARK   12  A    between atoms: _29  and  _30
REMARK   13  A    between atoms: _30  and  _31
REMARK   14  A    between atoms: _31  and  _32
REMARK   15  A    between atoms: _41  and  _43
REMARK   16  A    between atoms: _43  and  _44
REMARK   17  A    between atoms: _43  and  _46
REMARK   18  A    between atoms: _46  and  _47
REMARK   19  A    between atoms: _50  and  _52
REMARK   20  A    between atoms: _52  and  _53
REMARK   21  A    between atoms: _52  and  _55
REMARK   22  A    between atoms: _55  and  _56
REMARK   23  A    between atoms: _56  and  _57
REMARK   24  A    between atoms: _57  and  _58
REMARK   25  A    between atoms: _58  and  _59
REMARK   26  A    between atoms: _63  and  _65
REMARK   27  A    between atoms: _65  and  _66
REMARK   28  A    between atoms: _65  and  _68
REMARK   29  A    between atoms: _68  and  _69
REMARK   30  A    between atoms: _79  and  _81
REMARK   31  A    between atoms: _81  and  _82
REMARK   32  A    between atoms: _81  and  _84
REMARK   33  A    between atoms: _84  and  _85
REMARK   34  A    between atoms: _88  and  _90
REMARK   35  A    between atoms: _90  and  _91
REMARK   36  A    between atoms: _90  and  _93
REMARK   37  A    between atoms: _93  and  _94
REMARK   38  A    between atoms: _99  and  _101
REMARK   39  A    between atoms: _101  and  _102
REMARK   40  A    between atoms: _101  and  _104
REMARK   41  A    between atoms: _104  and  _105
REMARK   42  A    between atoms: _107  and  _109
REMARK   43  A    between atoms: _109  and  _110
REMARK   44  A    between atoms: _109  and  _112
REMARK   45  A    between atoms: _112  and  _113
REMARK   46  A    between atoms: _113  and  _114
REMARK   47  A    between atoms: _119  and  _121
REMARK   48  A    between atoms: _121  and  _122
REMARK   49  A    between atoms: _121  and  _124
REMARK   50  A    between atoms: _124  and  _125
REMARK   51  A    between atoms: _125  and  _126
REMARK   52  A    between atoms: _129  and  _131
REMARK   53  A    between atoms: _131  and  _132
REMARK   54  A    between atoms: _134  and  _136
REMARK   55  A    between atoms: _136  and  _137
REMARK   56  A    between atoms: _136  and  _139
REMARK   57  A    between atoms: _139  and  _140
REMARK   58  A    between atoms: _143  and  _145
REMARK   59  A    between atoms: _145  and  _146
REMARK   60  A    between atoms: _145  and  _148
REMARK   61  A    between atoms: _148  and  _149
REMARK   62  A    between atoms: _154  and  _156
REMARK   63  A    between atoms: _156  and  _157
REMARK   64  A    between atoms: _156  and  _159
REMARK   65  A    between atoms: _159  and  _160
REMARK   66  A    between atoms: _163  and  _165
REMARK   67  A    between atoms: _165  and  _166
REMARK   68  A    between atoms: _165  and  _168
REMARK   69  A    between atoms: _168  and  _169
REMARK   70  A    between atoms: _169  and  _170
REMARK   71  A    between atoms: _170  and  _171
REMARK   72  A    between atoms: _171  and  _172
REMARK   73  A    between atoms: _176  and  _178
REMARK   74  A    between atoms: _178  and  _179
REMARK   75  A    between atoms: _178  and  _181
REMARK   76  A    between atoms: _181  and  _182
REMARK   77  A    between atoms: _187  and  _188
REMARK   78  A    between atoms: _191  and  _192
REMARK   79  A    between atoms: _197  and  _199
REMARK   80  A    between atoms: _199  and  _200
REMARK   81  A    between atoms: _199  and  _202
REMARK   82  A    between atoms: _202  and  _203
REMARK   83  A    between atoms: _206  and  _208
REMARK   84  A    between atoms: _208  and  _209
REMARK   85  A    between atoms: _211  and  _213
REMARK   86  A    between atoms: _213  and  _214
REMARK   87  A    between atoms: _213  and  _216
REMARK   88  A    between atoms: _219  and  _221
REMARK   89  A    between atoms: _221  and  _222
REMARK   90  A    between atoms: _221  and  _224
REMARK   91  A    between atoms: _224  and  _225
REMARK   92  A    between atoms: _227  and  _229
REMARK   93  A    between atoms: _229  and  _230
REMARK   94  A    between atoms: _229  and  _232
REMARK   95  A    between atoms: _232  and  _233
REMARK   96  A    between atoms: _233  and  _234
REMARK   97  A    between atoms: _234  and  _235
REMARK   98  A    between atoms: _244  and  _246
REMARK   99  A    between atoms: _246  and  _247
REMARK  100  A    between atoms: _246  and  _249
REMARK  101  A    between atoms: _249  and  _250
REMARK  102  A    between atoms: _255  and  _257
REMARK  103  A    between atoms: _257  and  _258
REMARK  104  A    between atoms: _257  and  _260
REMARK  105  A    between atoms: _260  and  _261
REMARK  106  A    between atoms: _261  and  _262
REMARK  107  A    between atoms: _262  and  _263
REMARK  108  A    between atoms: _272  and  _274
REMARK  109  A    between atoms: _274  and  _275
REMARK  110  A    between atoms: _274  and  _277
REMARK  111  A    between atoms: _277  and  _278
REMARK  112  A    between atoms: _282  and  _283
REMARK  113  A    between atoms: _288  and  _290
REMARK  114  A    between atoms: _290  and  _291
REMARK  115  A    between atoms: _290  and  _293
REMARK  116  A    between atoms: _293  and  _294
REMARK  117  A    between atoms: _294  and  _295
REMARK  118  A    between atoms: _298  and  _300
REMARK  119  A    between atoms: _300  and  _301
REMARK  120  A    between atoms: _300  and  _303
REMARK  121  A    between atoms: _303  and  _304
REMARK  122  A    between atoms: _304  and  _305
REMARK  123  A    between atoms: _308  and  _310
REMARK  124  A    between atoms: _310  and  _311
REMARK  125  A    between atoms: _310  and  _313
REMARK  126  A    between atoms: _313  and  _314
REMARK  127  A    between atoms: _319  and  _321
REMARK  128  A    between atoms: _321  and  _322
REMARK  129  A    between atoms: _321  and  _324
REMARK  130  A    between atoms: _324  and  _325
REMARK  131  A    between atoms: _328  and  _330
REMARK  132  A    between atoms: _330  and  _331
REMARK  133  A    between atoms: _330  and  _333
REMARK  134  A    between atoms: _333  and  _334
REMARK  135  A    between atoms: _344  and  _346
REMARK  136  A    between atoms: _346  and  _347
REMARK  137  A    between atoms: _346  and  _349
REMARK  138  A    between atoms: _349  and  _350
REMARK  139  A    between atoms: _350  and  _351
REMARK  140  A    between atoms: _353  and  _355
REMARK  141  A    between atoms: _355  and  _356
REMARK  142  A    between atoms: _355  and  _358
REMARK  143  A    between atoms: _358  and  _359
REMARK  144  A    between atoms: _359  and  _360
REMARK  145  A    between atoms: _360  and  _361
REMARK  146  A    between atoms: _361  and  _362
REMARK  147  A    between atoms: _366  and  _368
REMARK  148  A    between atoms: _368  and  _369
REMARK  149  A    between atoms: _372  and  _374
REMARK  150  A    between atoms: _374  and  _375
REMARK  151  A    between atoms: _374  and  _377
REMARK  152  A    between atoms: _377  and  _378
REMARK  153  A    between atoms: _378  and  _379
REMARK  154  A    between atoms: _379  and  _380
REMARK  155  A    between atoms: _389  and  _391
REMARK  156  A    between atoms: _391  and  _392
REMARK  157  A    between atoms: _391  and  _394
REMARK  158  A    between atoms: _394  and  _395
REMARK  159  A    between atoms: _398  and  _400
REMARK  160  A    between atoms: _400  and  _401
REMARK  161  A    between atoms: _400  and  _403
REMARK  162  A    between atoms: _403  and  _404
REMARK  163  A    between atoms: _414  and  _416
REMARK  164  A    between atoms: _416  and  _417
REMARK  165  A    between atoms: _416  and  _419
REMARK  166  A    between atoms: _419  and  _420
REMARK  167  A    between atoms: _426  and  _428
REMARK  168  A    between atoms: _428  and  _429
REMARK  169  A    between atoms: _432  and  _434
REMARK  170  A    between atoms: _434  and  _435
REMARK  171  A    between atoms: _434  and  _437
REMARK  172  A    between atoms: _437  and  _438
REMARK  173  A    between atoms: _440  and  _442
REMARK  174  A    between atoms: _442  and  _443
REMARK  175  A    between atoms: _442  and  _445
REMARK  176  A    between atoms: _445  and  _446
REMARK  177  A    between atoms: _449  and  _451
REMARK  178  A    between atoms: _451  and  _452
REMARK  179  A    between atoms: _455  and  _457
REMARK  180  A    between atoms: _457  and  _458
REMARK  181  A    between atoms: _457  and  _460
REMARK  182  A    between atoms: _460  and  _461
REMARK  183  A    between atoms: _464  and  _466
REMARK  184  A    between atoms: _466  and  _467
REMARK  185  A    between atoms: _466  and  _469
REMARK  186  A    between atoms: _469  and  _470
REMARK  187  A    between atoms: _473  and  _475
REMARK  188  A    between atoms: _475  and  _476
REMARK  189  A    between atoms: _475  and  _478
REMARK  190  A    between atoms: _478  and  _479
REMARK  191  A    between atoms: _479  and  _480
REMARK  192  A    between atoms: _480  and  _481
REMARK  193  A    between atoms: _490  and  _492
REMARK  194  A    between atoms: _492  and  _493
REMARK  195  A    between atoms: _492  and  _495
REMARK  196  A    between atoms: _495  and  _496
REMARK  197  A    between atoms: _496  and  _497
REMARK  198  A    between atoms: _502  and  _504
REMARK  199  A    between atoms: _504  and  _505
REMARK  200  A    between atoms: _504  and  _507
REMARK  201  A    between atoms: _507  and  _508
REMARK  202  A    between atoms: _508  and  _509
REMARK  203  A    between atoms: _509  and  _510
REMARK  204  A    between atoms: _520  and  _521
REMARK  205  A    between atoms: _526  and  _528
REMARK  206  A    between atoms: _528  and  _529
REMARK  207  A    between atoms: _528  and  _531
REMARK  208  A    between atoms: _531  and  _532
REMARK  209  A    between atoms: _535  and  _537
REMARK  210  A    between atoms: _537  and  _538
REMARK  211  A    between atoms: _537  and  _540
REMARK  212  A    between atoms: _540  and  _541
REMARK  213  A    between atoms: _547  and  _548
REMARK  214  A    between atoms: _553  and  _555
REMARK  215  A    between atoms: _555  and  _556
REMARK  216  A    between atoms: _555  and  _558
REMARK  217  A    between atoms: _561  and  _563
REMARK  218  A    between atoms: _563  and  _564
REMARK  219  A    between atoms: _563  and  _566
REMARK  220  A    between atoms: _566  and  _567
REMARK  221  A    between atoms: _572  and  _574
REMARK  222  A    between atoms: _574  and  _575
REMARK  223  A    between atoms: _574  and  _577
REMARK  224  A    between atoms: _577  and  _578
REMARK  225  A    between atoms: _583  and  _585
REMARK  226  A    between atoms: _585  and  _586
REMARK  227  A    between atoms: _585  and  _588
REMARK  228  A    between atoms: _588  and  _589
REMARK  229  A    between atoms: _589  and  _590
REMARK  230  A    between atoms: _592  and  _594
REMARK  231  A    between atoms: _594  and  _595
REMARK  232  A    between atoms: _594  and  _597
REMARK  233  A    between atoms: _597  and  _598
REMARK  234  A    between atoms: _603  and  _604
REMARK  235  A    between atoms: _606  and  _608
REMARK  236  A    between atoms: _608  and  _609
REMARK  237  A    between atoms: _608  and  _611
REMARK  238  A    between atoms: _611  and  _612
REMARK  239  A    between atoms: _612  and  _613
REMARK  240  A    between atoms: _618  and  _620
REMARK  241  A    between atoms: _620  and  _621
REMARK  242  A    between atoms: _620  and  _623
REMARK  243  A    between atoms: _623  and  _624
REMARK  244  A    between atoms: _628  and  _629
REMARK  245  A    between atoms: _634  and  _636
REMARK  246  A    between atoms: _636  and  _637
REMARK  247  A    between atoms: _636  and  _639
REMARK  248  A    between atoms: _639  and  _640
REMARK  249  A    between atoms: _646  and  _648
REMARK  250  A    between atoms: _648  and  _649
REMARK  251  A    between atoms: _648  and  _651
REMARK  252  A    between atoms: _651  and  _652
REMARK  253  A    between atoms: _652  and  _653
REMARK  254  A    between atoms: _658  and  _660
REMARK  255  A    between atoms: _660  and  _661
REMARK  256  A    between atoms: _660  and  _663
REMARK  257  A    between atoms: _663  and  _664
REMARK  258  A    between atoms: _667  and  _669
REMARK  259  A    between atoms: _669  and  _670
REMARK  260  A    between atoms: _669  and  _672
REMARK  261  A    between atoms: _672  and  _673
REMARK  262  A    between atoms: _678  and  _679
REMARK  263  A    between atoms: _681  and  _683
REMARK  264  A    between atoms: _683  and  _684
REMARK  265  A    between atoms: _683  and  _686
REMARK  266  A    between atoms: _686  and  _687
REMARK  267  A    between atoms: _692  and  _693
REMARK  268  A    between atoms: _695  and  _697
REMARK  269  A    between atoms: _697  and  _698
REMARK  270  A    between atoms: _697  and  _700
REMARK  271  A    between atoms: _700  and  _701
REMARK  272  A    between atoms: _701  and  _702
REMARK  273  A    between atoms: _705  and  _707
REMARK  274  A    between atoms: _707  and  _708
REMARK  275  A    between atoms: _707  and  _710
REMARK  276  A    between atoms: _710  and  _711
REMARK  277  A    between atoms: _711  and  _712
REMARK  278  A    between atoms: _712  and  _713
REMARK  279  A    between atoms: _722  and  _724
REMARK  280  A    between atoms: _724  and  _725
REMARK  281  A    between atoms: _724  and  _727
REMARK  282  A    between atoms: _727  and  _728
REMARK  283  A    between atoms: _738  and  _740
REMARK  284  A    between atoms: _740  and  _741
REMARK  285  A    between atoms: _740  and  _743
REMARK  286  A    between atoms: _743  and  _744
REMARK  287  A    between atoms: _747  and  _749
REMARK  288  A    between atoms: _749  and  _750
REMARK  289  A    between atoms: _753  and  _755
REMARK  290  A    between atoms: _755  and  _756
REMARK  291  A    between atoms: _755  and  _758
REMARK  292  A    between atoms: _758  and  _759
REMARK  293  A    between atoms: _762  and  _764
REMARK  294  A    between atoms: _764  and  _765
REMARK  295  A    between atoms: _764  and  _767
REMARK  296  A    between atoms: _767  and  _768
REMARK  297  A    between atoms: _768  and  _769
REMARK  298  A    between atoms: _769  and  _770
REMARK  299  A    between atoms: _770  and  _771
REMARK  300  A    between atoms: _775  and  _777
REMARK  301  A    between atoms: _777  and  _778
REMARK  302  A    between atoms: _777  and  _780
REMARK  303  A    between atoms: _780  and  _781
REMARK                            x       y       z     vdW  Elec       q    Type
REMARK                         _______ _______ _______ _____ _____    ______ ____
ROOT
ATOM      1  O   HOH     1     -13.517  -6.240 -13.373  0.00  0.00    +0.000 OA
ENDROOT
TORSDOF 0
REMARK  Name = ../refined-set-2016/1y3p/1y3p_pocket.pdb
REMARK  303 active torsions:
REMARK  status: ('A' for Active; 'I' for Inactive)
REMARK    1  A    between atoms: _1  and  _3
REMARK    2  A    between atoms: _3  and  _4
REMARK    3  A    between atoms: _3  and  _6
REMARK    4  A    between atoms: _6  and  _7
REMARK    5  A    between atoms: _12  and  _14
REMARK    6  A    between atoms: _14  and  _15
REMARK    7  A    between atoms: _14  and  _17
REMARK    8  A    between atoms: _17  and  _18
REMARK    9  A    between atoms: _24  and  _26
REMARK   10  A    between atoms: _26  and  _27
REMARK   11  A    between atoms: _26  and  _29
REMARK   12  A    between atoms: _29  and  _30
REMARK   13  A    between atoms: _30  and  _31
REMARK   14  A    between atoms: _31  and  _32
REMARK   15  A    between atoms: _41  and  _43
REMARK   16  A    between atoms: _43  and  _44
REMARK   17  A    between atoms: _43  and  _46
REMARK   18  A    between atoms: _46  and  _47
REMARK   19  A    between atoms: _50  and  _52
REMARK   20  A    between atoms: _52  and  _53
REMARK   21  A    between atoms: _52  and  _55
REMARK   22  A    between atoms: _55  and  _56
REMARK   23  A    between atoms: _56  and  _57
REMARK   24  A    between atoms: _57  and  _58
REMARK   25  A    between atoms: _58  and  _59
REMARK   26  A    between atoms: _63  and  _65
REMARK   27  A    between atoms: _65  and  _66
REMARK   28  A    between atoms: _65  and  _68
REMARK   29  A    between atoms: _68  and  _69
REMARK   30  A    between atoms: _79  and  _81
REMARK   31  A    between atoms: _81  and  _82
REMARK   32  A    between atoms: _81  and  _84
REMARK   33  A    between atoms: _84  and  _85
REMARK   34  A    between atoms: _88  and  _90
REMARK   35  A    between atoms: _90  and  _91
REMARK   36  A    between atoms: _90  and  _93
REMARK   37  A    between atoms: _93  and  _94
REMARK   38  A    between atoms: _99  and  _101
REMARK   39  A    between atoms: _101  and  _102
REMARK   40  A    between atoms: _101  and  _104
REMARK   41  A    between atoms: _104  and  _105
REMARK   42  A    between atoms: _107  and  _109
REMARK   43  A    between atoms: _109  and  _110
REMARK   44  A    between atoms: _109  and  _112
REMARK   45  A    between atoms: _112  and  _113
REMARK   46  A    between atoms: _113  and  _114
REMARK   47  A    between atoms: _119  and  _121
REMARK   48  A    between atoms: _121  and  _122
REMARK   49  A    between atoms: _121  and  _124
REMARK   50  A    between atoms: _124  and  _125
REMARK   51  A    between atoms: _125  and  _126
REMARK   52  A    between atoms: _129  and  _131
REMARK   53  A    between atoms: _131  and  _132
REMARK   54  A    between atoms: _134  and  _136
REMARK   55  A    between atoms: _136  and  _137
REMARK   56  A    between atoms: _136  and  _139
REMARK   57  A    between atoms: _139  and  _140
REMARK   58  A    between atoms: _143  and  _145
REMARK   59  A    between atoms: _145  and  _146
REMARK   60  A    between atoms: _145  and  _148
REMARK   61  A    between atoms: _148  and  _149
REMARK   62  A    between atoms: _154  and  _156
REMARK   63  A    between atoms: _156  and  _157
REMARK   64  A    between atoms: _156  and  _159
REMARK   65  A    between atoms: _159  and  _160
REMARK   66  A    between atoms: _163  and  _165
REMARK   67  A    between atoms: _165  and  _166
REMARK   68  A    between atoms: _165  and  _168
REMARK   69  A    between atoms: _168  and  _169
REMARK   70  A    between atoms: _169  and  _170
REMARK   71  A    between atoms: _170  and  _171
REMARK   72  A    between atoms: _171  and  _172
REMARK   73  A    between atoms: _176  and  _178
REMARK   74  A    between atoms: _178  and  _179
REMARK   75  A    between atoms: _178  and  _181
REMARK   76  A    between atoms: _181  and  _182
REMARK   77  A    between atoms: _187  and  _188
REMARK   78  A    between atoms: _191  and  _192
REMARK   79  A    between atoms: _197  and  _199
REMARK   80  A    between atoms: _199  and  _200
REMARK   81  A    between atoms: _199  and  _202
REMARK   82  A    between atoms: _202  and  _203
REMARK   83  A    between atoms: _206  and  _208
REMARK   84  A    between atoms: _208  and  _209
REMARK   85  A    between atoms: _211  and  _213
REMARK   86  A    between atoms: _213  and  _214
REMARK   87  A    between atoms: _213  and  _216
REMARK   88  A    between atoms: _219  and  _221
REMARK   89  A    between atoms: _221  and  _222
REMARK   90  A    between atoms: _221  and  _224
REMARK   91  A    between atoms: _224  and  _225
REMARK   92  A    between atoms: _227  and  _229
REMARK   93  A    between atoms: _229  and  _230
REMARK   94  A    between atoms: _229  and  _232
REMARK   95  A    between atoms: _232  and  _233
REMARK   96  A    between atoms: _233  and  _234
REMARK   97  A    between atoms: _234  and  _235
REMARK   98  A    between atoms: _244  and  _246
REMARK   99  A    between atoms: _246  and  _247
REMARK  100  A    between atoms: _246  and  _249
REMARK  101  A    between atoms: _249  and  _250
REMARK  102  A    between atoms: _255  and  _257
REMARK  103  A    between atoms: _257  and  _258
REMARK  104  A    between atoms: _257  and  _260
REMARK  105  A    between atoms: _260  and  _261
REMARK  106  A    between atoms: _261  and  _262
REMARK  107  A    between atoms: _262  and  _263
REMARK  108  A    between atoms: _272  and  _274
REMARK  109  A    between atoms: _274  and  _275
REMARK  110  A    between atoms: _274  and  _277
REMARK  111  A    between atoms: _277  and  _278
REMARK  112  A    between atoms: _282  and  _283
REMARK  113  A    between atoms: _288  and  _290
REMARK  114  A    between atoms: _290  and  _291
REMARK  115  A    between atoms: _290  and  _293
REMARK  116  A    between atoms: _293  and  _294
REMARK  117  A    between atoms: _294  and  _295
REMARK  118  A    between atoms: _298  and  _300
REMARK  119  A    between atoms: _300  and  _301
REMARK  120  A    between atoms: _300  and  _303
REMARK  121  A    between atoms: _303  and  _304
REMARK  122  A    between atoms: _304  and  _305
REMARK  123  A    between atoms: _308  and  _310
REMARK  124  A    between atoms: _310  and  _311
REMARK  125  A    between atoms: _310  and  _313
REMARK  126  A    between atoms: _313  and  _314
REMARK  127  A    between atoms: _319  and  _321
REMARK  128  A    between atoms: _321  and  _322
REMARK  129  A    between atoms: _321  and  _324
REMARK  130  A    between atoms: _324  and  _325
REMARK  131  A    between atoms: _328  and  _330
REMARK  132  A    between atoms: _330  and  _331
REMARK  133  A    between atoms: _330  and  _333
REMARK  134  A    between atoms: _333  and  _334
REMARK  135  A    between atoms: _344  and  _346
REMARK  136  A    between atoms: _346  and  _347
REMARK  137  A    between atoms: _346  and  _349
REMARK  138  A    between atoms: _349  and  _350
REMARK  139  A    between atoms: _350  and  _351
REMARK  140  A    between atoms: _353  and  _355
REMARK  141  A    between atoms: _355  and  _356
REMARK  142  A    between atoms: _355  and  _358
REMARK  143  A    between atoms: _358  and  _359
REMARK  144  A    between atoms: _359  and  _360
REMARK  145  A    between atoms: _360  and  _361
REMARK  146  A    between atoms: _361  and  _362
REMARK  147  A    between atoms: _366  and  _368
REMARK  148  A    between atoms: _368  and  _369
REMARK  149  A    between atoms: _372  and  _374
REMARK  150  A    between atoms: _374  and  _375
REMARK  151  A    between atoms: _374  and  _377
REMARK  152  A    between atoms: _377  and  _378
REMARK  153  A    between atoms: _378  and  _379
REMARK  154  A    between atoms: _379  and  _380
REMARK  155  A    between atoms: _389  and  _391
REMARK  156  A    between atoms: _391  and  _392
REMARK  157  A    between atoms: _391  and  _394
REMARK  158  A    between atoms: _394  and  _395
REMARK  159  A    between atoms: _398  and  _400
REMARK  160  A    between atoms: _400  and  _401
REMARK  161  A    between atoms: _400  and  _403
REMARK  162  A    between atoms: _403  and  _404
REMARK  163  A    between atoms: _414  and  _416
REMARK  164  A    between atoms: _416  and  _417
REMARK  165  A    between atoms: _416  and  _419
REMARK  166  A    between atoms: _419  and  _420
REMARK  167  A    between atoms: _426  and  _428
REMARK  168  A    between atoms: _428  and  _429
REMARK  169  A    between atoms: _432  and  _434
REMARK  170  A    between atoms: _434  and  _435
REMARK  171  A    between atoms: _434  and  _437
REMARK  172  A    between atoms: _437  and  _438
REMARK  173  A    between atoms: _440  and  _442
REMARK  174  A    between atoms: _442  and  _443
REMARK  175  A    between atoms: _442  and  _445
REMARK  176  A    between atoms: _445  and  _446
REMARK  177  A    between atoms: _449  and  _451
REMARK  178  A    between atoms: _451  and  _452
REMARK  179  A    between atoms: _455  and  _457
REMARK  180  A    between atoms: _457  and  _458
REMARK  181  A    between atoms: _457  and  _460
REMARK  182  A    between atoms: _460  and  _461
REMARK  183  A    between atoms: _464  and  _466
REMARK  184  A    between atoms: _466  and  _467
REMARK  185  A    between atoms: _466  and  _469
REMARK  186  A    between atoms: _469  and  _470
REMARK  187  A    between atoms: _473  and  _475
REMARK  188  A    between atoms: _475  and  _476
REMARK  189  A    between atoms: _475  and  _478
REMARK  190  A    between atoms: _478  and  _479
REMARK  191  A    between atoms: _479  and  _480
REMARK  192  A    between atoms: _480  and  _481
REMARK  193  A    between atoms: _490  and  _492
REMARK  194  A    between atoms: _492  and  _493
REMARK  195  A    between atoms: _492  and  _495
REMARK  196  A    between atoms: _495  and  _496
REMARK  197  A    between atoms: _496  and  _497
REMARK  198  A    between atoms: _502  and  _504
REMARK  199  A    between atoms: _504  and  _505
REMARK  200  A    between atoms: _504  and  _507
REMARK  201  A    between atoms: _507  and  _508
REMARK  202  A    between atoms: _508  and  _509
REMARK  203  A    between atoms: _509  and  _510
REMARK  204  A    between atoms: _520  and  _521
REMARK  205  A    between atoms: _526  and  _528
REMARK  206  A    between atoms: _528  and  _529
REMARK  207  A    between atoms: _528  and  _531
REMARK  208  A    between atoms: _531  and  _532
REMARK  209  A    between atoms: _535  and  _537
REMARK  210  A    between atoms: _537  and  _538
REMARK  211  A    between atoms: _537  and  _540
REMARK  212  A    between atoms: _540  and  _541
REMARK  213  A    between atoms: _547  and  _548
REMARK  214  A    between atoms: _553  and  _555
REMARK  215  A    between atoms: _555  and  _556
REMARK  216  A    between atoms: _555  and  _558
REMARK  217  A    between atoms: _561  and  _563
REMARK  218  A    between atoms: _563  and  _564
REMARK  219  A    between atoms: _563  and  _566
REMARK  220  A    between atoms: _566  and  _567
REMARK  221  A    between atoms: _572  and  _574
REMARK  222  A    between atoms: _574  and  _575
REMARK  223  A    between atoms: _574  and  _577
REMARK  224  A    between atoms: _577  and  _578
REMARK  225  A    between atoms: _583  and  _585
REMARK  226  A    between atoms: _585  and  _586
REMARK  227  A    between atoms: _585  and  _588
REMARK  228  A    between atoms: _588  and  _589
REMARK  229  A    between atoms: _589  and  _590
REMARK  230  A    between atoms: _592  and  _594
REMARK  231  A    between atoms: _594  and  _595
REMARK  232  A    between atoms: _594  and  _597
REMARK  233  A    between atoms: _597  and  _598
REMARK  234  A    between atoms: _603  and  _604
REMARK  235  A    between atoms: _606  and  _608
REMARK  236  A    between atoms: _608  and  _609
REMARK  237  A    between atoms: _608  and  _611
REMARK  238  A    between atoms: _611  and  _612
REMARK  239  A    between atoms: _612  and  _613
REMARK  240  A    between atoms: _618  and  _620
REMARK  241  A    between atoms: _620  and  _621
REMARK  242  A    between atoms: _620  and  _623
REMARK  243  A    between atoms: _623  and  _624
REMARK  244  A    between atoms: _628  and  _629
REMARK  245  A    between atoms: _634  and  _636
REMARK  246  A    between atoms: _636  and  _637
REMARK  247  A    between atoms: _636  and  _639
REMARK  248  A    between atoms: _639  and  _640
REMARK  249  A    between atoms: _646  and  _648
REMARK  250  A    between atoms: _648  and  _649
REMARK  251  A    between atoms: _648  and  _651
REMARK  252  A    between atoms: _651  and  _652
REMARK  253  A    between atoms: _652  and  _653
REMARK  254  A    between atoms: _658  and  _660
REMARK  255  A    between atoms: _660  and  _661
REMARK  256  A    between atoms: _660  and  _663
REMARK  257  A    between atoms: _663  and  _664
REMARK  258  A    between atoms: _667  and  _669
REMARK  259  A    between atoms: _669  and  _670
REMARK  260  A    between atoms: _669  and  _672
REMARK  261  A    between atoms: _672  and  _673
REMARK  262  A    between atoms: _678  and  _679
REMARK  263  A    between atoms: _681  and  _683
REMARK  264  A    between atoms: _683  and  _684
REMARK  265  A    between atoms: _683  and  _686
REMARK  266  A    between atoms: _686  and  _687
REMARK  267  A    between atoms: _692  and  _693
REMARK  268  A    between atoms: _695  and  _697
REMARK  269  A    between atoms: _697  and  _698
REMARK  270  A    between atoms: _697  and  _700
REMARK  271  A    between atoms: _700  and  _701
REMARK  272  A    between atoms: _701  and  _702
REMARK  273  A    between atoms: _705  and  _707
REMARK  274  A    between atoms: _707  and  _708
REMARK  275  A    between atoms: _707  and  _710
REMARK  276  A    between atoms: _710  and  _711
REMARK  277  A    between atoms: _711  and  _712
REMARK  278  A    between atoms: _712  and  _713
REMARK  279  A    between atoms: _722  and  _724
REMARK  280  A    between atoms: _724  and  _725
REMARK  281  A    between atoms: _724  and  _727
REMARK  282  A    between atoms: _727  and  _728
REMARK  283  A    between atoms: _738  and  _740
REMARK  284  A    between atoms: _740  and  _741
REMARK  285  A    between atoms: _740  and  _743
REMARK  286  A    between atoms: _743  and  _744
REMARK  287  A    between atoms: _747  and  _749
REMARK  288  A    between atoms: _749  and  _750
REMARK  289  A    between atoms: _753  and  _755
REMARK  290  A    between atoms: _755  and  _756
REMARK  291  A    between atoms: _755  and  _758
REMARK  292  A    between atoms: _758  and  _759
REMARK  293  A    between atoms: _762  and  _764
REMARK  294  A    between atoms: _764  and  _765
REMARK  295  A    between atoms: _764  and  _767
REMARK  296  A    between atoms: _767  and  _768
REMARK  297  A    between atoms: _768  and  _769
REMARK  298  A    between atoms: _769  and  _770
REMARK  299  A    between atoms: _770  and  _771
REMARK  300  A    between atoms: _775  and  _777
REMARK  301  A    between atoms: _777  and  _778
REMARK  302  A    between atoms: _777  and  _780
REMARK  303  A    between atoms: _780  and  _781
REMARK                            x       y       z     vdW  Elec       q    Type
REMARK                         _______ _______ _______ _____ _____    ______ ____
ROOT
ATOM      1  O   HOH     1     -22.551   3.200  -9.466  0.00  0.00    +0.000 OA
ENDROOT
TORSDOF 0
