REMARK  Name = ../refined-set-2016/1fcx/1fcx_pocket.pdb
REMARK  264 active torsions:
REMARK  status: ('A' for Active; 'I' for Inactive)
REMARK    1  A    between atoms: _1  and  _3
REMARK    2  A    between atoms: _3  and  _4
REMARK    3  A    between atoms: _3  and  _6
REMARK    4  A    between atoms: _6  and  _7
REMARK    5  A    between atoms: _10  and  _12
REMARK    6  A    between atoms: _12  and  _13
REMARK    7  A    between atoms: _12  and  _15
REMARK    8  A    between atoms: _15  and  _16
REMARK    9  A    between atoms: _23  and  _24
REMARK   10  A    between atoms: _29  and  _31
REMARK   11  A    between atoms: _31  and  _32
REMARK   12  A    between atoms: _31  and  _34
REMARK   13  A    between atoms: _34  and  _35
REMARK   14  A    between atoms: _38  and  _40
REMARK   15  A    between atoms: _40  and  _41
REMARK   16  A    between atoms: _40  and  _43
REMARK   17  A    between atoms: _43  and  _44
REMARK   18  A    between atoms: _47  and  _49
REMARK   19  A    between atoms: _49  and  _50
REMARK   20  A    between atoms: _49  and  _52
REMARK   21  A    between atoms: _52  and  _53
REMARK   22  A    between atoms: _63  and  _65
REMARK   23  A    between atoms: _65  and  _66
REMARK   24  A    between atoms: _65  and  _68
REMARK   25  A    between atoms: _68  and  _69
REMARK   26  A    between atoms: _69  and  _70
REMARK   27  A    between atoms: _70  and  _71
REMARK   28  A    between atoms: _71  and  _72
REMARK   29  A    between atoms: _76  and  _78
REMARK   30  A    between atoms: _78  and  _79
REMARK   31  A    between atoms: _78  and  _81
REMARK   32  A    between atoms: _81  and  _82
REMARK   33  A    between atoms: _88  and  _90
REMARK   34  A    between atoms: _90  and  _91
REMARK   35  A    between atoms: _90  and  _93
REMARK   36  A    between atoms: _93  and  _94
REMARK   37  A    between atoms: _96  and  _98
REMARK   38  A    between atoms: _98  and  _99
REMARK   39  A    between atoms: _98  and  _101
REMARK   40  A    between atoms: _101  and  _102
REMARK   41  A    between atoms: _102  and  _103
REMARK   42  A    between atoms: _106  and  _108
REMARK   43  A    between atoms: _108  and  _109
REMARK   44  A    between atoms: _108  and  _111
REMARK   45  A    between atoms: _111  and  _112
REMARK   46  A    between atoms: _115  and  _117
REMARK   47  A    between atoms: _117  and  _118
REMARK   48  A    between atoms: _121  and  _123
REMARK   49  A    between atoms: _123  and  _124
REMARK   50  A    between atoms: _123  and  _126
REMARK   51  A    between atoms: _126  and  _127
REMARK   52  A    between atoms: _130  and  _132
REMARK   53  A    between atoms: _132  and  _133
REMARK   54  A    between atoms: _132  and  _135
REMARK   55  A    between atoms: _135  and  _136
REMARK   56  A    between atoms: _136  and  _137
REMARK   57  A    between atoms: _137  and  _138
REMARK   58  A    between atoms: _138  and  _139
REMARK   59  A    between atoms: _143  and  _145
REMARK   60  A    between atoms: _145  and  _146
REMARK   61  A    between atoms: _145  and  _148
REMARK   62  A    between atoms: _150  and  _152
REMARK   63  A    between atoms: _152  and  _153
REMARK   64  A    between atoms: _152  and  _155
REMARK   65  A    between atoms: _155  and  _156
REMARK   66  A    between atoms: _159  and  _161
REMARK   67  A    between atoms: _161  and  _162
REMARK   68  A    between atoms: _161  and  _164
REMARK   69  A    between atoms: _164  and  _165
REMARK   70  A    between atoms: _165  and  _166
REMARK   71  A    between atoms: _166  and  _167
REMARK   72  A    between atoms: _167  and  _168
REMARK   73  A    between atoms: _172  and  _174
REMARK   74  A    between atoms: _174  and  _175
REMARK   75  A    between atoms: _174  and  _177
REMARK   76  A    between atoms: _177  and  _178
REMARK   77  A    between atoms: _181  and  _183
REMARK   78  A    between atoms: _183  and  _184
REMARK   79  A    between atoms: _183  and  _186
REMARK   80  A    between atoms: _188  and  _190
REMARK   81  A    between atoms: _190  and  _191
REMARK   82  A    between atoms: _190  and  _193
REMARK   83  A    between atoms: _193  and  _194
REMARK   84  A    between atoms: _197  and  _199
REMARK   85  A    between atoms: _199  and  _200
REMARK   86  A    between atoms: _199  and  _202
REMARK   87  A    between atoms: _202  and  _203
REMARK   88  A    between atoms: _206  and  _208
REMARK   89  A    between atoms: _208  and  _209
REMARK   90  A    between atoms: _208  and  _211
REMARK   91  A    between atoms: _211  and  _212
REMARK   92  A    between atoms: _215  and  _217
REMARK   93  A    between atoms: _217  and  _218
REMARK   94  A    between atoms: _217  and  _220
REMARK   95  A    between atoms: _220  and  _221
REMARK   96  A    between atoms: _224  and  _226
REMARK   97  A    between atoms: _226  and  _227
REMARK   98  A    between atoms: _226  and  _229
REMARK   99  A    between atoms: _229  and  _230
REMARK  100  A    between atoms: _230  and  _231
REMARK  101  A    between atoms: _233  and  _235
REMARK  102  A    between atoms: _235  and  _236
REMARK  103  A    between atoms: _235  and  _238
REMARK  104  A    between atoms: _238  and  _239
REMARK  105  A    between atoms: _242  and  _244
REMARK  106  A    between atoms: _244  and  _245
REMARK  107  A    between atoms: _244  and  _247
REMARK  108  A    between atoms: _247  and  _248
REMARK  109  A    between atoms: _248  and  _249
REMARK  110  A    between atoms: _249  and  _250
REMARK  111  A    between atoms: _259  and  _261
REMARK  112  A    between atoms: _261  and  _262
REMARK  113  A    between atoms: _261  and  _264
REMARK  114  A    between atoms: _264  and  _265
REMARK  115  A    between atoms: _268  and  _270
REMARK  116  A    between atoms: _270  and  _271
REMARK  117  A    between atoms: _270  and  _273
REMARK  118  A    between atoms: _275  and  _277
REMARK  119  A    between atoms: _277  and  _278
REMARK  120  A    between atoms: _277  and  _280
REMARK  121  A    between atoms: _280  and  _281
REMARK  122  A    between atoms: _284  and  _286
REMARK  123  A    between atoms: _286  and  _287
REMARK  124  A    between atoms: _286  and  _289
REMARK  125  A    between atoms: _289  and  _290
REMARK  126  A    between atoms: _290  and  _291
REMARK  127  A    between atoms: _291  and  _292
REMARK  128  A    between atoms: _301  and  _303
REMARK  129  A    between atoms: _303  and  _304
REMARK  130  A    between atoms: _303  and  _306
REMARK  131  A    between atoms: _306  and  _307
REMARK  132  A    between atoms: _307  and  _308
REMARK  133  A    between atoms: _310  and  _312
REMARK  134  A    between atoms: _312  and  _313
REMARK  135  A    between atoms: _312  and  _315
REMARK  136  A    between atoms: _315  and  _316
REMARK  137  A    between atoms: _319  and  _321
REMARK  138  A    between atoms: _321  and  _322
REMARK  139  A    between atoms: _321  and  _324
REMARK  140  A    between atoms: _324  and  _325
REMARK  141  A    between atoms: _331  and  _333
REMARK  142  A    between atoms: _333  and  _334
REMARK  143  A    between atoms: _333  and  _336
REMARK  144  A    between atoms: _336  and  _337
REMARK  145  A    between atoms: _339  and  _341
REMARK  146  A    between atoms: _341  and  _342
REMARK  147  A    between atoms: _341  and  _344
REMARK  148  A    between atoms: _344  and  _345
REMARK  149  A    between atoms: _348  and  _350
REMARK  150  A    between atoms: _350  and  _351
REMARK  151  A    between atoms: _353  and  _355
REMARK  152  A    between atoms: _355  and  _356
REMARK  153  A    between atoms: _355  and  _358
REMARK  154  A    between atoms: _358  and  _359
REMARK  155  A    between atoms: _362  and  _364
REMARK  156  A    between atoms: _364  and  _365
REMARK  157  A    between atoms: _364  and  _367
REMARK  158  A    between atoms: _367  and  _368
REMARK  159  A    between atoms: _368  and  _369
REMARK  160  A    between atoms: _371  and  _373
REMARK  161  A    between atoms: _373  and  _374
REMARK  162  A    between atoms: _373  and  _376
REMARK  163  A    between atoms: _376  and  _377
REMARK  164  A    between atoms: _382  and  _384
REMARK  165  A    between atoms: _384  and  _385
REMARK  166  A    between atoms: _388  and  _390
REMARK  167  A    between atoms: _390  and  _391
REMARK  168  A    between atoms: _393  and  _395
REMARK  169  A    between atoms: _395  and  _396
REMARK  170  A    between atoms: _395  and  _398
REMARK  171  A    between atoms: _398  and  _399
REMARK  172  A    between atoms: _405  and  _407
REMARK  173  A    between atoms: _407  and  _408
REMARK  174  A    between atoms: _410  and  _412
REMARK  175  A    between atoms: _412  and  _413
REMARK  176  A    between atoms: _412  and  _415
REMARK  177  A    between atoms: _415  and  _416
REMARK  178  A    between atoms: _419  and  _421
REMARK  179  A    between atoms: _421  and  _422
REMARK  180  A    between atoms: _421  and  _424
REMARK  181  A    between atoms: _424  and  _425
REMARK  182  A    between atoms: _428  and  _430
REMARK  183  A    between atoms: _430  and  _431
REMARK  184  A    between atoms: _430  and  _433
REMARK  185  A    between atoms: _436  and  _438
REMARK  186  A    between atoms: _438  and  _439
REMARK  187  A    between atoms: _438  and  _441
REMARK  188  A    between atoms: _441  and  _442
REMARK  189  A    between atoms: _445  and  _447
REMARK  190  A    between atoms: _447  and  _448
REMARK  191  A    between atoms: _447  and  _450
REMARK  192  A    between atoms: _450  and  _451
REMARK  193  A    between atoms: _453  and  _455
REMARK  194  A    between atoms: _455  and  _456
REMARK  195  A    between atoms: _455  and  _458
REMARK  196  A    between atoms: _458  and  _459
REMARK  197  A    between atoms: _459  and  _460
REMARK  198  A    between atoms: _460  and  _461
REMARK  199  A    between atoms: _461  and  _462
REMARK  200  A    between atoms: _466  and  _468
REMARK  201  A    between atoms: _468  and  _469
REMARK  202  A    between atoms: _471  and  _473
REMARK  203  A    between atoms: _473  and  _474
REMARK  204  A    between atoms: _477  and  _479
REMARK  205  A    between atoms: _479  and  _480
REMARK  206  A    between atoms: _479  and  _482
REMARK  207  A    between atoms: _482  and  _483
REMARK  208  A    between atoms: _483  and  _484
REMARK  209  A    between atoms: _487  and  _489
REMARK  210  A    between atoms: _489  and  _490
REMARK  211  A    between atoms: _489  and  _492
REMARK  212  A    between atoms: _492  and  _493
REMARK  213  A    between atoms: _493  and  _494
REMARK  214  A    between atoms: _494  and  _495
REMARK  215  A    between atoms: _504  and  _506
REMARK  216  A    between atoms: _506  and  _507
REMARK  217  A    between atoms: _510  and  _512
REMARK  218  A    between atoms: _512  and  _513
REMARK  219  A    between atoms: _512  and  _515
REMARK  220  A    between atoms: _515  and  _516
REMARK  221  A    between atoms: _519  and  _521
REMARK  222  A    between atoms: _521  and  _522
REMARK  223  A    between atoms: _521  and  _524
REMARK  224  A    between atoms: _524  and  _525
REMARK  225  A    between atoms: _528  and  _530
REMARK  226  A    between atoms: _530  and  _531
REMARK  227  A    between atoms: _530  and  _533
REMARK  228  A    between atoms: _533  and  _534
REMARK  229  A    between atoms: _537  and  _539
REMARK  230  A    between atoms: _539  and  _540
REMARK  231  A    between atoms: _539  and  _542
REMARK  232  A    between atoms: _542  and  _543
REMARK  233  A    between atoms: _543  and  _544
REMARK  234  A    between atoms: _544  and  _545
REMARK  235  A    between atoms: _545  and  _546
REMARK  236  A    between atoms: _550  and  _552
REMARK  237  A    between atoms: _552  and  _553
REMARK  238  A    between atoms: _552  and  _555
REMARK  239  A    between atoms: _555  and  _556
REMARK  240  A    between atoms: _559  and  _561
REMARK  241  A    between atoms: _561  and  _562
REMARK  242  A    between atoms: _561  and  _564
REMARK  243  A    between atoms: _564  and  _565
REMARK  244  A    between atoms: _565  and  _566
REMARK  245  A    between atoms: _569  and  _570
REMARK  246  A    between atoms: _575  and  _577
REMARK  247  A    between atoms: _577  and  _578
REMARK  248  A    between atoms: _577  and  _580
REMARK  249  A    between atoms: _580  and  _581
REMARK  250  A    between atoms: _584  and  _586
REMARK  251  A    between atoms: _586  and  _587
REMARK  252  A    between atoms: _586  and  _589
REMARK  253  A    between atoms: _589  and  _590
REMARK  254  A    between atoms: _590  and  _591
REMARK  255  A    between atoms: _591  and  _592
REMARK  256  A    between atoms: _601  and  _603
REMARK  257  A    between atoms: _603  and  _604
REMARK  258  A    between atoms: _603  and  _606
REMARK  259  A    between atoms: _606  and  _607
REMARK  260  A    between atoms: _607  and  _608
REMARK  261  A    between atoms: _610  and  _612
REMARK  262  A    between atoms: _612  and  _613
REMARK  263  A    between atoms: _612  and  _615
REMARK  264  A    between atoms: _615  and  _616
REMARK                            x       y       z     vdW  Elec       q    Type
REMARK                         _______ _______ _______ _____ _____    ______ ____
ROOT
ATOM      1  CA  PHE A   2      32.356  17.425  95.402  0.00  0.00    +0.153 C 
ENDROOT
BRANCH   1   2
ATOM      2  C   PHE A   2      30.831  17.308  95.392  0.00  0.00    +0.244 C 
ATOM      3  O   PHE A   2      30.329  16.335  95.969  0.00  0.00    -0.273 OA
ATOM      4  N   PRO A   3      30.115  18.252  94.773  0.00  0.00    -0.273 N 
ATOM      5  CA  PRO A   3      28.647  18.101  94.677  0.00  0.00    +0.140 C 
ATOM      6  CB  PRO A   3      28.245  19.290  93.808  0.00  0.00    +0.030 C 
ATOM      7  CG  PRO A   3      29.368  20.279  93.912  0.00  0.00    +0.024 C 
ATOM      8  CD  PRO A   3      30.633  19.500  94.172  0.00  0.00    +0.094 C 
BRANCH   5   9
ATOM      9  C   PRO A   3      28.175  16.804  94.047  0.00  0.00    +0.227 C 
ATOM     10  O   PRO A   3      28.776  16.196  93.166  0.00  0.00    -0.286 OA
ENDBRANCH   5   9
ENDBRANCH   1   2
BRANCH   1  12
ATOM     11  C   THR A   1      33.952  18.799  96.606  0.00  0.00    +0.241 C 
ATOM     12  N   PHE A   2      32.797  18.170  96.563  0.00  0.00    -0.297 N 
ATOM     13  H   PHE A   2      32.176  18.209  97.396  0.00  0.00    +0.150 HD
ATOM     14  O   THR A   1      34.700  18.850  95.615  0.00  0.00    -0.274 OA
BRANCH  11  15
ATOM     15  CA  THR A   1      34.335  19.479  97.930  0.00  0.00    +0.172 C 
BRANCH  15  16
ATOM     16  N   THR A   1      33.392  19.211  99.007  0.00  0.00    -0.236 NA
ATOM     17  H   THR A   1      33.247  18.233  99.330  0.00  0.00    +0.142 HD
ENDBRANCH  15  16
BRANCH  15  18
ATOM     18  CB  THR A   1      35.761  18.992  98.257  0.00  0.00    +0.135 C 
ATOM     19  CG2 THR A   1      36.285  19.699  99.489  0.00  0.00    +0.034 C 
BRANCH  18  20
ATOM     20  OG1 THR A   1      35.825  17.575  98.517  0.00  0.00    -0.383 OA
ATOM     21  HG1 THR A   1      35.247  17.356  99.290  0.00  0.00    +0.210 HD
ENDBRANCH  18  20
ENDBRANCH  15  18
ENDBRANCH  11  15
ENDBRANCH   1  12
BRANCH   1  22
ATOM     22  CB  PHE A   2      32.956  16.024  95.323  0.00  0.00    +0.055 C 
BRANCH  22  23
ATOM     23  CG  PHE A   2      32.842  15.423  93.920  0.00  0.00    -0.020 A 
ATOM     24  CD2 PHE A   2      32.178  14.248  93.694  0.00  0.00    -0.004 A 
ATOM     25  CE2 PHE A   2      32.106  13.723  92.421  0.00  0.00    -0.000 A 
ATOM     26  CZ  PHE A   2      32.683  14.419  91.368  0.00  0.00    -0.000 A 
ATOM     27  CE1 PHE A   2      33.366  15.615  91.605  0.00  0.00    -0.000 A 
ATOM     28  CD1 PHE A   2      33.445  16.100  92.892  0.00  0.00    -0.004 A 
ENDBRANCH  22  23
ENDBRANCH   1  22
TORSDOF 9
REMARK  Name = ../refined-set-2016/1fcx/1fcx_pocket.pdb
REMARK  264 active torsions:
REMARK  status: ('A' for Active; 'I' for Inactive)
REMARK    1  A    between atoms: _1  and  _3
REMARK    2  A    between atoms: _3  and  _4
REMARK    3  A    between atoms: _3  and  _6
REMARK    4  A    between atoms: _6  and  _7
REMARK    5  A    between atoms: _10  and  _12
REMARK    6  A    between atoms: _12  and  _13
REMARK    7  A    between atoms: _12  and  _15
REMARK    8  A    between atoms: _15  and  _16
REMARK    9  A    between atoms: _23  and  _24
REMARK   10  A    between atoms: _29  and  _31
REMARK   11  A    between atoms: _31  and  _32
REMARK   12  A    between atoms: _31  and  _34
REMARK   13  A    between atoms: _34  and  _35
REMARK   14  A    between atoms: _38  and  _40
REMARK   15  A    between atoms: _40  and  _41
REMARK   16  A    between atoms: _40  and  _43
REMARK   17  A    between atoms: _43  and  _44
REMARK   18  A    between atoms: _47  and  _49
REMARK   19  A    between atoms: _49  and  _50
REMARK   20  A    between atoms: _49  and  _52
REMARK   21  A    between atoms: _52  and  _53
REMARK   22  A    between atoms: _63  and  _65
REMARK   23  A    between atoms: _65  and  _66
REMARK   24  A    between atoms: _65  and  _68
REMARK   25  A    between atoms: _68  and  _69
REMARK   26  A    between atoms: _69  and  _70
REMARK   27  A    between atoms: _70  and  _71
REMARK   28  A    between atoms: _71  and  _72
REMARK   29  A    between atoms: _76  and  _78
REMARK   30  A    between atoms: _78  and  _79
REMARK   31  A    between atoms: _78  and  _81
REMARK   32  A    between atoms: _81  and  _82
REMARK   33  A    between atoms: _88  and  _90
REMARK   34  A    between atoms: _90  and  _91
REMARK   35  A    between atoms: _90  and  _93
REMARK   36  A    between atoms: _93  and  _94
REMARK   37  A    between atoms: _96  and  _98
REMARK   38  A    between atoms: _98  and  _99
REMARK   39  A    between atoms: _98  and  _101
REMARK   40  A    between atoms: _101  and  _102
REMARK   41  A    between atoms: _102  and  _103
REMARK   42  A    between atoms: _106  and  _108
REMARK   43  A    between atoms: _108  and  _109
REMARK   44  A    between atoms: _108  and  _111
REMARK   45  A    between atoms: _111  and  _112
REMARK   46  A    between atoms: _115  and  _117
REMARK   47  A    between atoms: _117  and  _118
REMARK   48  A    between atoms: _121  and  _123
REMARK   49  A    between atoms: _123  and  _124
REMARK   50  A    between atoms: _123  and  _126
REMARK   51  A    between atoms: _126  and  _127
REMARK   52  A    between atoms: _130  and  _132
REMARK   53  A    between atoms: _132  and  _133
REMARK   54  A    between atoms: _132  and  _135
REMARK   55  A    between atoms: _135  and  _136
REMARK   56  A    between atoms: _136  and  _137
REMARK   57  A    between atoms: _137  and  _138
REMARK   58  A    between atoms: _138  and  _139
REMARK   59  A    between atoms: _143  and  _145
REMARK   60  A    between atoms: _145  and  _146
REMARK   61  A    between atoms: _145  and  _148
REMARK   62  A    between atoms: _150  and  _152
REMARK   63  A    between atoms: _152  and  _153
REMARK   64  A    between atoms: _152  and  _155
REMARK   65  A    between atoms: _155  and  _156
REMARK   66  A    between atoms: _159  and  _161
REMARK   67  A    between atoms: _161  and  _162
REMARK   68  A    between atoms: _161  and  _164
REMARK   69  A    between atoms: _164  and  _165
REMARK   70  A    between atoms: _165  and  _166
REMARK   71  A    between atoms: _166  and  _167
REMARK   72  A    between atoms: _167  and  _168
REMARK   73  A    between atoms: _172  and  _174
REMARK   74  A    between atoms: _174  and  _175
REMARK   75  A    between atoms: _174  and  _177
REMARK   76  A    between atoms: _177  and  _178
REMARK   77  A    between atoms: _181  and  _183
REMARK   78  A    between atoms: _183  and  _184
REMARK   79  A    between atoms: _183  and  _186
REMARK   80  A    between atoms: _188  and  _190
REMARK   81  A    between atoms: _190  and  _191
REMARK   82  A    between atoms: _190  and  _193
REMARK   83  A    between atoms: _193  and  _194
REMARK   84  A    between atoms: _197  and  _199
REMARK   85  A    between atoms: _199  and  _200
REMARK   86  A    between atoms: _199  and  _202
REMARK   87  A    between atoms: _202  and  _203
REMARK   88  A    between atoms: _206  and  _208
REMARK   89  A    between atoms: _208  and  _209
REMARK   90  A    between atoms: _208  and  _211
REMARK   91  A    between atoms: _211  and  _212
REMARK   92  A    between atoms: _215  and  _217
REMARK   93  A    between atoms: _217  and  _218
REMARK   94  A    between atoms: _217  and  _220
REMARK   95  A    between atoms: _220  and  _221
REMARK   96  A    between atoms: _224  and  _226
REMARK   97  A    between atoms: _226  and  _227
REMARK   98  A    between atoms: _226  and  _229
REMARK   99  A    between atoms: _229  and  _230
REMARK  100  A    between atoms: _230  and  _231
REMARK  101  A    between atoms: _233  and  _235
REMARK  102  A    between atoms: _235  and  _236
REMARK  103  A    between atoms: _235  and  _238
REMARK  104  A    between atoms: _238  and  _239
REMARK  105  A    between atoms: _242  and  _244
REMARK  106  A    between atoms: _244  and  _245
REMARK  107  A    between atoms: _244  and  _247
REMARK  108  A    between atoms: _247  and  _248
REMARK  109  A    between atoms: _248  and  _249
REMARK  110  A    between atoms: _249  and  _250
REMARK  111  A    between atoms: _259  and  _261
REMARK  112  A    between atoms: _261  and  _262
REMARK  113  A    between atoms: _261  and  _264
REMARK  114  A    between atoms: _264  and  _265
REMARK  115  A    between atoms: _268  and  _270
REMARK  116  A    between atoms: _270  and  _271
REMARK  117  A    between atoms: _270  and  _273
REMARK  118  A    between atoms: _275  and  _277
REMARK  119  A    between atoms: _277  and  _278
REMARK  120  A    between atoms: _277  and  _280
REMARK  121  A    between atoms: _280  and  _281
REMARK  122  A    between atoms: _284  and  _286
REMARK  123  A    between atoms: _286  and  _287
REMARK  124  A    between atoms: _286  and  _289
REMARK  125  A    between atoms: _289  and  _290
REMARK  126  A    between atoms: _290  and  _291
REMARK  127  A    between atoms: _291  and  _292
REMARK  128  A    between atoms: _301  and  _303
REMARK  129  A    between atoms: _303  and  _304
REMARK  130  A    between atoms: _303  and  _306
REMARK  131  A    between atoms: _306  and  _307
REMARK  132  A    between atoms: _307  and  _308
REMARK  133  A    between atoms: _310  and  _312
REMARK  134  A    between atoms: _312  and  _313
REMARK  135  A    between atoms: _312  and  _315
REMARK  136  A    between atoms: _315  and  _316
REMARK  137  A    between atoms: _319  and  _321
REMARK  138  A    between atoms: _321  and  _322
REMARK  139  A    between atoms: _321  and  _324
REMARK  140  A    between atoms: _324  and  _325
REMARK  141  A    between atoms: _331  and  _333
REMARK  142  A    between atoms: _333  and  _334
REMARK  143  A    between atoms: _333  and  _336
REMARK  144  A    between atoms: _336  and  _337
REMARK  145  A    between atoms: _339  and  _341
REMARK  146  A    between atoms: _341  and  _342
REMARK  147  A    between atoms: _341  and  _344
REMARK  148  A    between atoms: _344  and  _345
REMARK  149  A    between atoms: _348  and  _350
REMARK  150  A    between atoms: _350  and  _351
REMARK  151  A    between atoms: _353  and  _355
REMARK  152  A    between atoms: _355  and  _356
REMARK  153  A    between atoms: _355  and  _358
REMARK  154  A    between atoms: _358  and  _359
REMARK  155  A    between atoms: _362  and  _364
REMARK  156  A    between atoms: _364  and  _365
REMARK  157  A    between atoms: _364  and  _367
REMARK  158  A    between atoms: _367  and  _368
REMARK  159  A    between atoms: _368  and  _369
REMARK  160  A    between atoms: _371  and  _373
REMARK  161  A    between atoms: _373  and  _374
REMARK  162  A    between atoms: _373  and  _376
REMARK  163  A    between atoms: _376  and  _377
REMARK  164  A    between atoms: _382  and  _384
REMARK  165  A    between atoms: _384  and  _385
REMARK  166  A    between atoms: _388  and  _390
REMARK  167  A    between atoms: _390  and  _391
REMARK  168  A    between atoms: _393  and  _395
REMARK  169  A    between atoms: _395  and  _396
REMARK  170  A    between atoms: _395  and  _398
REMARK  171  A    between atoms: _398  and  _399
REMARK  172  A    between atoms: _405  and  _407
REMARK  173  A    between atoms: _407  and  _408
REMARK  174  A    between atoms: _410  and  _412
REMARK  175  A    between atoms: _412  and  _413
REMARK  176  A    between atoms: _412  and  _415
REMARK  177  A    between atoms: _415  and  _416
REMARK  178  A    between atoms: _419  and  _421
REMARK  179  A    between atoms: _421  and  _422
REMARK  180  A    between atoms: _421  and  _424
REMARK  181  A    between atoms: _424  and  _425
REMARK  182  A    between atoms: _428  and  _430
REMARK  183  A    between atoms: _430  and  _431
REMARK  184  A    between atoms: _430  and  _433
REMARK  185  A    between atoms: _436  and  _438
REMARK  186  A    between atoms: _438  and  _439
REMARK  187  A    between atoms: _438  and  _441
REMARK  188  A    between atoms: _441  and  _442
REMARK  189  A    between atoms: _445  and  _447
REMARK  190  A    between atoms: _447  and  _448
REMARK  191  A    between atoms: _447  and  _450
REMARK  192  A    between atoms: _450  and  _451
REMARK  193  A    between atoms: _453  and  _455
REMARK  194  A    between atoms: _455  and  _456
REMARK  195  A    between atoms: _455  and  _458
REMARK  196  A    between atoms: _458  and  _459
REMARK  197  A    between atoms: _459  and  _460
REMARK  198  A    between atoms: _460  and  _461
REMARK  199  A    between atoms: _461  and  _462
REMARK  200  A    between atoms: _466  and  _468
REMARK  201  A    between atoms: _468  and  _469
REMARK  202  A    between atoms: _471  and  _473
REMARK  203  A    between atoms: _473  and  _474
REMARK  204  A    between atoms: _477  and  _479
REMARK  205  A    between atoms: _479  and  _480
REMARK  206  A    between atoms: _479  and  _482
REMARK  207  A    between atoms: _482  and  _483
REMARK  208  A    between atoms: _483  and  _484
REMARK  209  A    between atoms: _487  and  _489
REMARK  210  A    between atoms: _489  and  _490
REMARK  211  A    between atoms: _489  and  _492
REMARK  212  A    between atoms: _492  and  _493
REMARK  213  A    between atoms: _493  and  _494
REMARK  214  A    between atoms: _494  and  _495
REMARK  215  A    between atoms: _504  and  _506
REMARK  216  A    between atoms: _506  and  _507
REMARK  217  A    between atoms: _510  and  _512
REMARK  218  A    between atoms: _512  and  _513
REMARK  219  A    between atoms: _512  and  _515
REMARK  220  A    between atoms: _515  and  _516
REMARK  221  A    between atoms: _519  and  _521
REMARK  222  A    between atoms: _521  and  _522
REMARK  223  A    between atoms: _521  and  _524
REMARK  224  A    between atoms: _524  and  _525
REMARK  225  A    between atoms: _528  and  _530
REMARK  226  A    between atoms: _530  and  _531
REMARK  227  A    between atoms: _530  and  _533
REMARK  228  A    between atoms: _533  and  _534
REMARK  229  A    between atoms: _537  and  _539
REMARK  230  A    between atoms: _539  and  _540
REMARK  231  A    between atoms: _539  and  _542
REMARK  232  A    between atoms: _542  and  _543
REMARK  233  A    between atoms: _543  and  _544
REMARK  234  A    between atoms: _544  and  _545
REMARK  235  A    between atoms: _545  and  _546
REMARK  236  A    between atoms: _550  and  _552
REMARK  237  A    between atoms: _552  and  _553
REMARK  238  A    between atoms: _552  and  _555
REMARK  239  A    between atoms: _555  and  _556
REMARK  240  A    between atoms: _559  and  _561
REMARK  241  A    between atoms: _561  and  _562
REMARK  242  A    between atoms: _561  and  _564
REMARK  243  A    between atoms: _564  and  _565
REMARK  244  A    between atoms: _565  and  _566
REMARK  245  A    between atoms: _569  and  _570
REMARK  246  A    between atoms: _575  and  _577
REMARK  247  A    between atoms: _577  and  _578
REMARK  248  A    between atoms: _577  and  _580
REMARK  249  A    between atoms: _580  and  _581
REMARK  250  A    between atoms: _584  and  _586
REMARK  251  A    between atoms: _586  and  _587
REMARK  252  A    between atoms: _586  and  _589
REMARK  253  A    between atoms: _589  and  _590
REMARK  254  A    between atoms: _590  and  _591
REMARK  255  A    between atoms: _591  and  _592
REMARK  256  A    between atoms: _601  and  _603
REMARK  257  A    between atoms: _603  and  _604
REMARK  258  A    between atoms: _603  and  _606
REMARK  259  A    between atoms: _606  and  _607
REMARK  260  A    between atoms: _607  and  _608
REMARK  261  A    between atoms: _610  and  _612
REMARK  262  A    between atoms: _612  and  _613
REMARK  263  A    between atoms: _612  and  _615
REMARK  264  A    between atoms: _615  and  _616
REMARK                            x       y       z     vdW  Elec       q    Type
REMARK                         _______ _______ _______ _____ _____    ______ ____
ROOT
ATOM      1  CA  LEU A   1      23.827  20.004  90.082  0.00  0.00    +0.133 C 
ENDROOT
BRANCH   1   2
ATOM      2  N   LEU A   1      23.339  19.038  91.060  0.00  0.00    -0.239 NA
ATOM      3  H   LEU A   1      23.384  18.014  90.882  0.00  0.00    +0.142 HD
ENDBRANCH   1   2
BRANCH   1   4
ATOM      4  C   LEU A   1      22.802  20.352  89.029  0.00  0.00    +0.224 C 
ATOM      5  O   LEU A   1      22.092  19.425  88.622  0.00  0.00    -0.287 OA
ENDBRANCH   1   4
BRANCH   1   6
ATOM      6  CB  LEU A   1      25.077  19.438  89.373  0.00  0.00    +0.025 C 
BRANCH   6   7
ATOM      7  CG  LEU A   1      26.306  19.274  90.272  0.00  0.00    +0.002 C 
ATOM      8  CD2 LEU A   1      26.932  20.601  90.566  0.00  0.00    +0.000 C 
ATOM      9  CD1 LEU A   1      27.295  18.340  89.595  0.00  0.00    +0.000 C 
ENDBRANCH   6   7
ENDBRANCH   1   6
TORSDOF 4
REMARK  Name = ../refined-set-2016/1fcx/1fcx_pocket.pdb
REMARK  264 active torsions:
REMARK  status: ('A' for Active; 'I' for Inactive)
REMARK    1  A    between atoms: _1  and  _3
REMARK    2  A    between atoms: _3  and  _4
REMARK    3  A    between atoms: _3  and  _6
REMARK    4  A    between atoms: _6  and  _7
REMARK    5  A    between atoms: _10  and  _12
REMARK    6  A    between atoms: _12  and  _13
REMARK    7  A    between atoms: _12  and  _15
REMARK    8  A    between atoms: _15  and  _16
REMARK    9  A    between atoms: _23  and  _24
REMARK   10  A    between atoms: _29  and  _31
REMARK   11  A    between atoms: _31  and  _32
REMARK   12  A    between atoms: _31  and  _34
REMARK   13  A    between atoms: _34  and  _35
REMARK   14  A    between atoms: _38  and  _40
REMARK   15  A    between atoms: _40  and  _41
REMARK   16  A    between atoms: _40  and  _43
REMARK   17  A    between atoms: _43  and  _44
REMARK   18  A    between atoms: _47  and  _49
REMARK   19  A    between atoms: _49  and  _50
REMARK   20  A    between atoms: _49  and  _52
REMARK   21  A    between atoms: _52  and  _53
REMARK   22  A    between atoms: _63  and  _65
REMARK   23  A    between atoms: _65  and  _66
REMARK   24  A    between atoms: _65  and  _68
REMARK   25  A    between atoms: _68  and  _69
REMARK   26  A    between atoms: _69  and  _70
REMARK   27  A    between atoms: _70  and  _71
REMARK   28  A    between atoms: _71  and  _72
REMARK   29  A    between atoms: _76  and  _78
REMARK   30  A    between atoms: _78  and  _79
REMARK   31  A    between atoms: _78  and  _81
REMARK   32  A    between atoms: _81  and  _82
REMARK   33  A    between atoms: _88  and  _90
REMARK   34  A    between atoms: _90  and  _91
REMARK   35  A    between atoms: _90  and  _93
REMARK   36  A    between atoms: _93  and  _94
REMARK   37  A    between atoms: _96  and  _98
REMARK   38  A    between atoms: _98  and  _99
REMARK   39  A    between atoms: _98  and  _101
REMARK   40  A    between atoms: _101  and  _102
REMARK   41  A    between atoms: _102  and  _103
REMARK   42  A    between atoms: _106  and  _108
REMARK   43  A    between atoms: _108  and  _109
REMARK   44  A    between atoms: _108  and  _111
REMARK   45  A    between atoms: _111  and  _112
REMARK   46  A    between atoms: _115  and  _117
REMARK   47  A    between atoms: _117  and  _118
REMARK   48  A    between atoms: _121  and  _123
REMARK   49  A    between atoms: _123  and  _124
REMARK   50  A    between atoms: _123  and  _126
REMARK   51  A    between atoms: _126  and  _127
REMARK   52  A    between atoms: _130  and  _132
REMARK   53  A    between atoms: _132  and  _133
REMARK   54  A    between atoms: _132  and  _135
REMARK   55  A    between atoms: _135  and  _136
REMARK   56  A    between atoms: _136  and  _137
REMARK   57  A    between atoms: _137  and  _138
REMARK   58  A    between atoms: _138  and  _139
REMARK   59  A    between atoms: _143  and  _145
REMARK   60  A    between atoms: _145  and  _146
REMARK   61  A    between atoms: _145  and  _148
REMARK   62  A    between atoms: _150  and  _152
REMARK   63  A    between atoms: _152  and  _153
REMARK   64  A    between atoms: _152  and  _155
REMARK   65  A    between atoms: _155  and  _156
REMARK   66  A    between atoms: _159  and  _161
REMARK   67  A    between atoms: _161  and  _162
REMARK   68  A    between atoms: _161  and  _164
REMARK   69  A    between atoms: _164  and  _165
REMARK   70  A    between atoms: _165  and  _166
REMARK   71  A    between atoms: _166  and  _167
REMARK   72  A    between atoms: _167  and  _168
REMARK   73  A    between atoms: _172  and  _174
REMARK   74  A    between atoms: _174  and  _175
REMARK   75  A    between atoms: _174  and  _177
REMARK   76  A    between atoms: _177  and  _178
REMARK   77  A    between atoms: _181  and  _183
REMARK   78  A    between atoms: _183  and  _184
REMARK   79  A    between atoms: _183  and  _186
REMARK   80  A    between atoms: _188  and  _190
REMARK   81  A    between atoms: _190  and  _191
REMARK   82  A    between atoms: _190  and  _193
REMARK   83  A    between atoms: _193  and  _194
REMARK   84  A    between atoms: _197  and  _199
REMARK   85  A    between atoms: _199  and  _200
REMARK   86  A    between atoms: _199  and  _202
REMARK   87  A    between atoms: _202  and  _203
REMARK   88  A    between atoms: _206  and  _208
REMARK   89  A    between atoms: _208  and  _209
REMARK   90  A    between atoms: _208  and  _211
REMARK   91  A    between atoms: _211  and  _212
REMARK   92  A    between atoms: _215  and  _217
REMARK   93  A    between atoms: _217  and  _218
REMARK   94  A    between atoms: _217  and  _220
REMARK   95  A    between atoms: _220  and  _221
REMARK   96  A    between atoms: _224  and  _226
REMARK   97  A    between atoms: _226  and  _227
REMARK   98  A    between atoms: _226  and  _229
REMARK   99  A    between atoms: _229  and  _230
REMARK  100  A    between atoms: _230  and  _231
REMARK  101  A    between atoms: _233  and  _235
REMARK  102  A    between atoms: _235  and  _236
REMARK  103  A    between atoms: _235  and  _238
REMARK  104  A    between atoms: _238  and  _239
REMARK  105  A    between atoms: _242  and  _244
REMARK  106  A    between atoms: _244  and  _245
REMARK  107  A    between atoms: _244  and  _247
REMARK  108  A    between atoms: _247  and  _248
REMARK  109  A    between atoms: _248  and  _249
REMARK  110  A    between atoms: _249  and  _250
REMARK  111  A    between atoms: _259  and  _261
REMARK  112  A    between atoms: _261  and  _262
REMARK  113  A    between atoms: _261  and  _264
REMARK  114  A    between atoms: _264  and  _265
REMARK  115  A    between atoms: _268  and  _270
REMARK  116  A    between atoms: _270  and  _271
REMARK  117  A    between atoms: _270  and  _273
REMARK  118  A    between atoms: _275  and  _277
REMARK  119  A    between atoms: _277  and  _278
REMARK  120  A    between atoms: _277  and  _280
REMARK  121  A    between atoms: _280  and  _281
REMARK  122  A    between atoms: _284  and  _286
REMARK  123  A    between atoms: _286  and  _287
REMARK  124  A    between atoms: _286  and  _289
REMARK  125  A    between atoms: _289  and  _290
REMARK  126  A    between atoms: _290  and  _291
REMARK  127  A    between atoms: _291  and  _292
REMARK  128  A    between atoms: _301  and  _303
REMARK  129  A    between atoms: _303  and  _304
REMARK  130  A    between atoms: _303  and  _306
REMARK  131  A    between atoms: _306  and  _307
REMARK  132  A    between atoms: _307  and  _308
REMARK  133  A    between atoms: _310  and  _312
REMARK  134  A    between atoms: _312  and  _313
REMARK  135  A    between atoms: _312  and  _315
REMARK  136  A    between atoms: _315  and  _316
REMARK  137  A    between atoms: _319  and  _321
REMARK  138  A    between atoms: _321  and  _322
REMARK  139  A    between atoms: _321  and  _324
REMARK  140  A    between atoms: _324  and  _325
REMARK  141  A    between atoms: _331  and  _333
REMARK  142  A    between atoms: _333  and  _334
REMARK  143  A    between atoms: _333  and  _336
REMARK  144  A    between atoms: _336  and  _337
REMARK  145  A    between atoms: _339  and  _341
REMARK  146  A    between atoms: _341  and  _342
REMARK  147  A    between atoms: _341  and  _344
REMARK  148  A    between atoms: _344  and  _345
REMARK  149  A    between atoms: _348  and  _350
REMARK  150  A    between atoms: _350  and  _351
REMARK  151  A    between atoms: _353  and  _355
REMARK  152  A    between atoms: _355  and  _356
REMARK  153  A    between atoms: _355  and  _358
REMARK  154  A    between atoms: _358  and  _359
REMARK  155  A    between atoms: _362  and  _364
REMARK  156  A    between atoms: _364  and  _365
REMARK  157  A    between atoms: _364  and  _367
REMARK  158  A    between atoms: _367  and  _368
REMARK  159  A    between atoms: _368  and  _369
REMARK  160  A    between atoms: _371  and  _373
REMARK  161  A    between atoms: _373  and  _374
REMARK  162  A    between atoms: _373  and  _376
REMARK  163  A    between atoms: _376  and  _377
REMARK  164  A    between atoms: _382  and  _384
REMARK  165  A    between atoms: _384  and  _385
REMARK  166  A    between atoms: _388  and  _390
REMARK  167  A    between atoms: _390  and  _391
REMARK  168  A    between atoms: _393  and  _395
REMARK  169  A    between atoms: _395  and  _396
REMARK  170  A    between atoms: _395  and  _398
REMARK  171  A    between atoms: _398  and  _399
REMARK  172  A    between atoms: _405  and  _407
REMARK  173  A    between atoms: _407  and  _408
REMARK  174  A    between atoms: _410  and  _412
REMARK  175  A    between atoms: _412  and  _413
REMARK  176  A    between atoms: _412  and  _415
REMARK  177  A    between atoms: _415  and  _416
REMARK  178  A    between atoms: _419  and  _421
REMARK  179  A    between atoms: _421  and  _422
REMARK  180  A    between atoms: _421  and  _424
REMARK  181  A    between atoms: _424  and  _425
REMARK  182  A    between atoms: _428  and  _430
REMARK  183  A    between atoms: _430  and  _431
REMARK  184  A    between atoms: _430  and  _433
REMARK  185  A    between atoms: _436  and  _438
REMARK  186  A    between atoms: _438  and  _439
REMARK  187  A    between atoms: _438  and  _441
REMARK  188  A    between atoms: _441  and  _442
REMARK  189  A    between atoms: _445  and  _447
REMARK  190  A    between atoms: _447  and  _448
REMARK  191  A    between atoms: _447  and  _450
REMARK  192  A    between atoms: _450  and  _451
REMARK  193  A    between atoms: _453  and  _455
REMARK  194  A    between atoms: _455  and  _456
REMARK  195  A    between atoms: _455  and  _458
REMARK  196  A    between atoms: _458  and  _459
REMARK  197  A    between atoms: _459  and  _460
REMARK  198  A    between atoms: _460  and  _461
REMARK  199  A    between atoms: _461  and  _462
REMARK  200  A    between atoms: _466  and  _468
REMARK  201  A    between atoms: _468  and  _469
REMARK  202  A    between atoms: _471  and  _473
REMARK  203  A    between atoms: _473  and  _474
REMARK  204  A    between atoms: _477  and  _479
REMARK  205  A    between atoms: _479  and  _480
REMARK  206  A    between atoms: _479  and  _482
REMARK  207  A    between atoms: _482  and  _483
REMARK  208  A    between atoms: _483  and  _484
REMARK  209  A    between atoms: _487  and  _489
REMARK  210  A    between atoms: _489  and  _490
REMARK  211  A    between atoms: _489  and  _492
REMARK  212  A    between atoms: _492  and  _493
REMARK  213  A    between atoms: _493  and  _494
REMARK  214  A    between atoms: _494  and  _495
REMARK  215  A    between atoms: _504  and  _506
REMARK  216  A    between atoms: _506  and  _507
REMARK  217  A    between atoms: _510  and  _512
REMARK  218  A    between atoms: _512  and  _513
REMARK  219  A    between atoms: _512  and  _515
REMARK  220  A    between atoms: _515  and  _516
REMARK  221  A    between atoms: _519  and  _521
REMARK  222  A    between atoms: _521  and  _522
REMARK  223  A    between atoms: _521  and  _524
REMARK  224  A    between atoms: _524  and  _525
REMARK  225  A    between atoms: _528  and  _530
REMARK  226  A    between atoms: _530  and  _531
REMARK  227  A    between atoms: _530  and  _533
REMARK  228  A    between atoms: _533  and  _534
REMARK  229  A    between atoms: _537  and  _539
REMARK  230  A    between atoms: _539  and  _540
REMARK  231  A    between atoms: _539  and  _542
REMARK  232  A    between atoms: _542  and  _543
REMARK  233  A    between atoms: _543  and  _544
REMARK  234  A    between atoms: _544  and  _545
REMARK  235  A    between atoms: _545  and  _546
REMARK  236  A    between atoms: _550  and  _552
REMARK  237  A    between atoms: _552  and  _553
REMARK  238  A    between atoms: _552  and  _555
REMARK  239  A    between atoms: _555  and  _556
REMARK  240  A    between atoms: _559  and  _561
REMARK  241  A    between atoms: _561  and  _562
REMARK  242  A    between atoms: _561  and  _564
REMARK  243  A    between atoms: _564  and  _565
REMARK  244  A    between atoms: _565  and  _566
REMARK  245  A    between atoms: _569  and  _570
REMARK  246  A    between atoms: _575  and  _577
REMARK  247  A    between atoms: _577  and  _578
REMARK  248  A    between atoms: _577  and  _580
REMARK  249  A    between atoms: _580  and  _581
REMARK  250  A    between atoms: _584  and  _586
REMARK  251  A    between atoms: _586  and  _587
REMARK  252  A    between atoms: _586  and  _589
REMARK  253  A    between atoms: _589  and  _590
REMARK  254  A    between atoms: _590  and  _591
REMARK  255  A    between atoms: _591  and  _592
REMARK  256  A    between atoms: _601  and  _603
REMARK  257  A    between atoms: _603  and  _604
REMARK  258  A    between atoms: _603  and  _606
REMARK  259  A    between atoms: _606  and  _607
REMARK  260  A    between atoms: _607  and  _608
REMARK  261  A    between atoms: _610  and  _612
REMARK  262  A    between atoms: _612  and  _613
REMARK  263  A    between atoms: _612  and  _615
REMARK  264  A    between atoms: _615  and  _616
REMARK                            x       y       z     vdW  Elec       q    Type
REMARK                         _______ _______ _______ _____ _____    ______ ____
ROOT
ATOM      1  CA  LEU A   1      40.651  17.453  69.727  0.00  0.00    +0.133 C 
ENDROOT
BRANCH   1   2
ATOM      2  N   LEU A   1      40.749  16.545  68.584  0.00  0.00    -0.239 NA
ATOM      3  H   LEU A   1      40.491  16.927  67.651  0.00  0.00    +0.142 HD
ENDBRANCH   1   2
BRANCH   1   4
ATOM      4  C   LEU A   1      39.819  18.695  69.383  0.00  0.00    +0.224 C 
ATOM      5  O   LEU A   1      40.126  19.328  68.350  0.00  0.00    -0.287 OA
ENDBRANCH   1   4
BRANCH   1   6
ATOM      6  CB  LEU A   1      42.007  17.981  70.184  0.00  0.00    +0.025 C 
BRANCH   6   7
ATOM      7  CG  LEU A   1      42.023  18.672  71.546  0.00  0.00    +0.002 C 
ATOM      8  CD2 LEU A   1      41.534  17.819  72.700  0.00  0.00    +0.000 C 
ATOM      9  CD1 LEU A   1      43.429  19.135  71.844  0.00  0.00    +0.000 C 
ENDBRANCH   6   7
ENDBRANCH   1   6
TORSDOF 4
REMARK  Name = ../refined-set-2016/1fcx/1fcx_pocket.pdb
REMARK  264 active torsions:
REMARK  status: ('A' for Active; 'I' for Inactive)
REMARK    1  A    between atoms: _1  and  _3
REMARK    2  A    between atoms: _3  and  _4
REMARK    3  A    between atoms: _3  and  _6
REMARK    4  A    between atoms: _6  and  _7
REMARK    5  A    between atoms: _10  and  _12
REMARK    6  A    between atoms: _12  and  _13
REMARK    7  A    between atoms: _12  and  _15
REMARK    8  A    between atoms: _15  and  _16
REMARK    9  A    between atoms: _23  and  _24
REMARK   10  A    between atoms: _29  and  _31
REMARK   11  A    between atoms: _31  and  _32
REMARK   12  A    between atoms: _31  and  _34
REMARK   13  A    between atoms: _34  and  _35
REMARK   14  A    between atoms: _38  and  _40
REMARK   15  A    between atoms: _40  and  _41
REMARK   16  A    between atoms: _40  and  _43
REMARK   17  A    between atoms: _43  and  _44
REMARK   18  A    between atoms: _47  and  _49
REMARK   19  A    between atoms: _49  and  _50
REMARK   20  A    between atoms: _49  and  _52
REMARK   21  A    between atoms: _52  and  _53
REMARK   22  A    between atoms: _63  and  _65
REMARK   23  A    between atoms: _65  and  _66
REMARK   24  A    between atoms: _65  and  _68
REMARK   25  A    between atoms: _68  and  _69
REMARK   26  A    between atoms: _69  and  _70
REMARK   27  A    between atoms: _70  and  _71
REMARK   28  A    between atoms: _71  and  _72
REMARK   29  A    between atoms: _76  and  _78
REMARK   30  A    between atoms: _78  and  _79
REMARK   31  A    between atoms: _78  and  _81
REMARK   32  A    between atoms: _81  and  _82
REMARK   33  A    between atoms: _88  and  _90
REMARK   34  A    between atoms: _90  and  _91
REMARK   35  A    between atoms: _90  and  _93
REMARK   36  A    between atoms: _93  and  _94
REMARK   37  A    between atoms: _96  and  _98
REMARK   38  A    between atoms: _98  and  _99
REMARK   39  A    between atoms: _98  and  _101
REMARK   40  A    between atoms: _101  and  _102
REMARK   41  A    between atoms: _102  and  _103
REMARK   42  A    between atoms: _106  and  _108
REMARK   43  A    between atoms: _108  and  _109
REMARK   44  A    between atoms: _108  and  _111
REMARK   45  A    between atoms: _111  and  _112
REMARK   46  A    between atoms: _115  and  _117
REMARK   47  A    between atoms: _117  and  _118
REMARK   48  A    between atoms: _121  and  _123
REMARK   49  A    between atoms: _123  and  _124
REMARK   50  A    between atoms: _123  and  _126
REMARK   51  A    between atoms: _126  and  _127
REMARK   52  A    between atoms: _130  and  _132
REMARK   53  A    between atoms: _132  and  _133
REMARK   54  A    between atoms: _132  and  _135
REMARK   55  A    between atoms: _135  and  _136
REMARK   56  A    between atoms: _136  and  _137
REMARK   57  A    between atoms: _137  and  _138
REMARK   58  A    between atoms: _138  and  _139
REMARK   59  A    between atoms: _143  and  _145
REMARK   60  A    between atoms: _145  and  _146
REMARK   61  A    between atoms: _145  and  _148
REMARK   62  A    between atoms: _150  and  _152
REMARK   63  A    between atoms: _152  and  _153
REMARK   64  A    between atoms: _152  and  _155
REMARK   65  A    between atoms: _155  and  _156
REMARK   66  A    between atoms: _159  and  _161
REMARK   67  A    between atoms: _161  and  _162
REMARK   68  A    between atoms: _161  and  _164
REMARK   69  A    between atoms: _164  and  _165
REMARK   70  A    between atoms: _165  and  _166
REMARK   71  A    between atoms: _166  and  _167
REMARK   72  A    between atoms: _167  and  _168
REMARK   73  A    between atoms: _172  and  _174
REMARK   74  A    between atoms: _174  and  _175
REMARK   75  A    between atoms: _174  and  _177
REMARK   76  A    between atoms: _177  and  _178
REMARK   77  A    between atoms: _181  and  _183
REMARK   78  A    between atoms: _183  and  _184
REMARK   79  A    between atoms: _183  and  _186
REMARK   80  A    between atoms: _188  and  _190
REMARK   81  A    between atoms: _190  and  _191
REMARK   82  A    between atoms: _190  and  _193
REMARK   83  A    between atoms: _193  and  _194
REMARK   84  A    between atoms: _197  and  _199
REMARK   85  A    between atoms: _199  and  _200
REMARK   86  A    between atoms: _199  and  _202
REMARK   87  A    between atoms: _202  and  _203
REMARK   88  A    between atoms: _206  and  _208
REMARK   89  A    between atoms: _208  and  _209
REMARK   90  A    between atoms: _208  and  _211
REMARK   91  A    between atoms: _211  and  _212
REMARK   92  A    between atoms: _215  and  _217
REMARK   93  A    between atoms: _217  and  _218
REMARK   94  A    between atoms: _217  and  _220
REMARK   95  A    between atoms: _220  and  _221
REMARK   96  A    between atoms: _224  and  _226
REMARK   97  A    between atoms: _226  and  _227
REMARK   98  A    between atoms: _226  and  _229
REMARK   99  A    between atoms: _229  and  _230
REMARK  100  A    between atoms: _230  and  _231
REMARK  101  A    between atoms: _233  and  _235
REMARK  102  A    between atoms: _235  and  _236
REMARK  103  A    between atoms: _235  and  _238
REMARK  104  A    between atoms: _238  and  _239
REMARK  105  A    between atoms: _242  and  _244
REMARK  106  A    between atoms: _244  and  _245
REMARK  107  A    between atoms: _244  and  _247
REMARK  108  A    between atoms: _247  and  _248
REMARK  109  A    between atoms: _248  and  _249
REMARK  110  A    between atoms: _249  and  _250
REMARK  111  A    between atoms: _259  and  _261
REMARK  112  A    between atoms: _261  and  _262
REMARK  113  A    between atoms: _261  and  _264
REMARK  114  A    between atoms: _264  and  _265
REMARK  115  A    between atoms: _268  and  _270
REMARK  116  A    between atoms: _270  and  _271
REMARK  117  A    between atoms: _270  and  _273
REMARK  118  A    between atoms: _275  and  _277
REMARK  119  A    between atoms: _277  and  _278
REMARK  120  A    between atoms: _277  and  _280
REMARK  121  A    between atoms: _280  and  _281
REMARK  122  A    between atoms: _284  and  _286
REMARK  123  A    between atoms: _286  and  _287
REMARK  124  A    between atoms: _286  and  _289
REMARK  125  A    between atoms: _289  and  _290
REMARK  126  A    between atoms: _290  and  _291
REMARK  127  A    between atoms: _291  and  _292
REMARK  128  A    between atoms: _301  and  _303
REMARK  129  A    between atoms: _303  and  _304
REMARK  130  A    between atoms: _303  and  _306
REMARK  131  A    between atoms: _306  and  _307
REMARK  132  A    between atoms: _307  and  _308
REMARK  133  A    between atoms: _310  and  _312
REMARK  134  A    between atoms: _312  and  _313
REMARK  135  A    between atoms: _312  and  _315
REMARK  136  A    between atoms: _315  and  _316
REMARK  137  A    between atoms: _319  and  _321
REMARK  138  A    between atoms: _321  and  _322
REMARK  139  A    between atoms: _321  and  _324
REMARK  140  A    between atoms: _324  and  _325
REMARK  141  A    between atoms: _331  and  _333
REMARK  142  A    between atoms: _333  and  _334
REMARK  143  A    between atoms: _333  and  _336
REMARK  144  A    between atoms: _336  and  _337
REMARK  145  A    between atoms: _339  and  _341
REMARK  146  A    between atoms: _341  and  _342
REMARK  147  A    between atoms: _341  and  _344
REMARK  148  A    between atoms: _344  and  _345
REMARK  149  A    between atoms: _348  and  _350
REMARK  150  A    between atoms: _350  and  _351
REMARK  151  A    between atoms: _353  and  _355
REMARK  152  A    between atoms: _355  and  _356
REMARK  153  A    between atoms: _355  and  _358
REMARK  154  A    between atoms: _358  and  _359
REMARK  155  A    between atoms: _362  and  _364
REMARK  156  A    between atoms: _364  and  _365
REMARK  157  A    between atoms: _364  and  _367
REMARK  158  A    between atoms: _367  and  _368
REMARK  159  A    between atoms: _368  and  _369
REMARK  160  A    between atoms: _371  and  _373
REMARK  161  A    between atoms: _373  and  _374
REMARK  162  A    between atoms: _373  and  _376
REMARK  163  A    between atoms: _376  and  _377
REMARK  164  A    between atoms: _382  and  _384
REMARK  165  A    between atoms: _384  and  _385
REMARK  166  A    between atoms: _388  and  _390
REMARK  167  A    between atoms: _390  and  _391
REMARK  168  A    between atoms: _393  and  _395
REMARK  169  A    between atoms: _395  and  _396
REMARK  170  A    between atoms: _395  and  _398
REMARK  171  A    between atoms: _398  and  _399
REMARK  172  A    between atoms: _405  and  _407
REMARK  173  A    between atoms: _407  and  _408
REMARK  174  A    between atoms: _410  and  _412
REMARK  175  A    between atoms: _412  and  _413
REMARK  176  A    between atoms: _412  and  _415
REMARK  177  A    between atoms: _415  and  _416
REMARK  178  A    between atoms: _419  and  _421
REMARK  179  A    between atoms: _421  and  _422
REMARK  180  A    between atoms: _421  and  _424
REMARK  181  A    between atoms: _424  and  _425
REMARK  182  A    between atoms: _428  and  _430
REMARK  183  A    between atoms: _430  and  _431
REMARK  184  A    between atoms: _430  and  _433
REMARK  185  A    between atoms: _436  and  _438
REMARK  186  A    between atoms: _438  and  _439
REMARK  187  A    between atoms: _438  and  _441
REMARK  188  A    between atoms: _441  and  _442
REMARK  189  A    between atoms: _445  and  _447
REMARK  190  A    between atoms: _447  and  _448
REMARK  191  A    between atoms: _447  and  _450
REMARK  192  A    between atoms: _450  and  _451
REMARK  193  A    between atoms: _453  and  _455
REMARK  194  A    between atoms: _455  and  _456
REMARK  195  A    between atoms: _455  and  _458
REMARK  196  A    between atoms: _458  and  _459
REMARK  197  A    between atoms: _459  and  _460
REMARK  198  A    between atoms: _460  and  _461
REMARK  199  A    between atoms: _461  and  _462
REMARK  200  A    between atoms: _466  and  _468
REMARK  201  A    between atoms: _468  and  _469
REMARK  202  A    between atoms: _471  and  _473
REMARK  203  A    between atoms: _473  and  _474
REMARK  204  A    between atoms: _477  and  _479
REMARK  205  A    between atoms: _479  and  _480
REMARK  206  A    between atoms: _479  and  _482
REMARK  207  A    between atoms: _482  and  _483
REMARK  208  A    between atoms: _483  and  _484
REMARK  209  A    between atoms: _487  and  _489
REMARK  210  A    between atoms: _489  and  _490
REMARK  211  A    between atoms: _489  and  _492
REMARK  212  A    between atoms: _492  and  _493
REMARK  213  A    between atoms: _493  and  _494
REMARK  214  A    between atoms: _494  and  _495
REMARK  215  A    between atoms: _504  and  _506
REMARK  216  A    between atoms: _506  and  _507
REMARK  217  A    between atoms: _510  and  _512
REMARK  218  A    between atoms: _512  and  _513
REMARK  219  A    between atoms: _512  and  _515
REMARK  220  A    between atoms: _515  and  _516
REMARK  221  A    between atoms: _519  and  _521
REMARK  222  A    between atoms: _521  and  _522
REMARK  223  A    between atoms: _521  and  _524
REMARK  224  A    between atoms: _524  and  _525
REMARK  225  A    between atoms: _528  and  _530
REMARK  226  A    between atoms: _530  and  _531
REMARK  227  A    between atoms: _530  and  _533
REMARK  228  A    between atoms: _533  and  _534
REMARK  229  A    between atoms: _537  and  _539
REMARK  230  A    between atoms: _539  and  _540
REMARK  231  A    between atoms: _539  and  _542
REMARK  232  A    between atoms: _542  and  _543
REMARK  233  A    between atoms: _543  and  _544
REMARK  234  A    between atoms: _544  and  _545
REMARK  235  A    between atoms: _545  and  _546
REMARK  236  A    between atoms: _550  and  _552
REMARK  237  A    between atoms: _552  and  _553
REMARK  238  A    between atoms: _552  and  _555
REMARK  239  A    between atoms: _555  and  _556
REMARK  240  A    between atoms: _559  and  _561
REMARK  241  A    between atoms: _561  and  _562
REMARK  242  A    between atoms: _561  and  _564
REMARK  243  A    between atoms: _564  and  _565
REMARK  244  A    between atoms: _565  and  _566
REMARK  245  A    between atoms: _569  and  _570
REMARK  246  A    between atoms: _575  and  _577
REMARK  247  A    between atoms: _577  and  _578
REMARK  248  A    between atoms: _577  and  _580
REMARK  249  A    between atoms: _580  and  _581
REMARK  250  A    between atoms: _584  and  _586
REMARK  251  A    between atoms: _586  and  _587
REMARK  252  A    between atoms: _586  and  _589
REMARK  253  A    between atoms: _589  and  _590
REMARK  254  A    between atoms: _590  and  _591
REMARK  255  A    between atoms: _591  and  _592
REMARK  256  A    between atoms: _601  and  _603
REMARK  257  A    between atoms: _603  and  _604
REMARK  258  A    between atoms: _603  and  _606
REMARK  259  A    between atoms: _606  and  _607
REMARK  260  A    between atoms: _607  and  _608
REMARK  261  A    between atoms: _610  and  _612
REMARK  262  A    between atoms: _612  and  _613
REMARK  263  A    between atoms: _612  and  _615
REMARK  264  A    between atoms: _615  and  _616
REMARK                            x       y       z     vdW  Elec       q    Type
REMARK                         _______ _______ _______ _____ _____    ______ ____
ROOT
ATOM      1  CG  TRP A   1      42.226  21.241  75.816  0.00  0.00    -0.002 A 
ATOM      2  CD2 TRP A   1      42.790  20.456  76.877  0.00  0.00    +0.013 A 
ATOM      3  CE3 TRP A   1      42.421  19.274  77.506  0.00  0.00    +0.001 A 
ATOM      4  CZ3 TRP A   1      43.228  18.811  78.511  0.00  0.00    +0.000 A 
ATOM      5  CH2 TRP A   1      44.402  19.462  78.930  0.00  0.00    +0.001 A 
ATOM      6  CZ2 TRP A   1      44.771  20.625  78.308  0.00  0.00    +0.017 A 
ATOM      7  CE2 TRP A   1      43.966  21.106  77.295  0.00  0.00    +0.056 A 
ATOM      8  NE1 TRP A   1      44.087  22.233  76.510  0.00  0.00    -0.352 N 
ATOM      9  HE1 TRP A   1      44.856  22.930  76.575  0.00  0.00    +0.166 HD
ATOM     10  CD1 TRP A   1      43.051  22.292  75.642  0.00  0.00    +0.068 A 
ENDROOT
BRANCH   1  11
ATOM     11  CB  TRP A   1      40.973  20.989  75.040  0.00  0.00    +0.053 C 
BRANCH  11  12
ATOM     12  CA  TRP A   1      39.721  21.184  75.941  0.00  0.00    +0.137 C 
BRANCH  12  13
ATOM     13  N   TRP A   1      38.527  21.331  75.102  0.00  0.00    -0.239 NA
ATOM     14  H   TRP A   1      38.606  21.340  74.065  0.00  0.00    +0.142 HD
ENDBRANCH  12  13
BRANCH  12  15
ATOM     15  C   TRP A   1      39.907  22.347  76.907  0.00  0.00    +0.224 C 
ATOM     16  O   TRP A   1      40.244  22.166  78.067  0.00  0.00    -0.287 OA
ENDBRANCH  12  15
ENDBRANCH  11  12
ENDBRANCH   1  11
TORSDOF 4
REMARK  Name = ../refined-set-2016/1fcx/1fcx_pocket.pdb
REMARK  264 active torsions:
REMARK  status: ('A' for Active; 'I' for Inactive)
REMARK    1  A    between atoms: _1  and  _3
REMARK    2  A    between atoms: _3  and  _4
REMARK    3  A    between atoms: _3  and  _6
REMARK    4  A    between atoms: _6  and  _7
REMARK    5  A    between atoms: _10  and  _12
REMARK    6  A    between atoms: _12  and  _13
REMARK    7  A    between atoms: _12  and  _15
REMARK    8  A    between atoms: _15  and  _16
REMARK    9  A    between atoms: _23  and  _24
REMARK   10  A    between atoms: _29  and  _31
REMARK   11  A    between atoms: _31  and  _32
REMARK   12  A    between atoms: _31  and  _34
REMARK   13  A    between atoms: _34  and  _35
REMARK   14  A    between atoms: _38  and  _40
REMARK   15  A    between atoms: _40  and  _41
REMARK   16  A    between atoms: _40  and  _43
REMARK   17  A    between atoms: _43  and  _44
REMARK   18  A    between atoms: _47  and  _49
REMARK   19  A    between atoms: _49  and  _50
REMARK   20  A    between atoms: _49  and  _52
REMARK   21  A    between atoms: _52  and  _53
REMARK   22  A    between atoms: _63  and  _65
REMARK   23  A    between atoms: _65  and  _66
REMARK   24  A    between atoms: _65  and  _68
REMARK   25  A    between atoms: _68  and  _69
REMARK   26  A    between atoms: _69  and  _70
REMARK   27  A    between atoms: _70  and  _71
REMARK   28  A    between atoms: _71  and  _72
REMARK   29  A    between atoms: _76  and  _78
REMARK   30  A    between atoms: _78  and  _79
REMARK   31  A    between atoms: _78  and  _81
REMARK   32  A    between atoms: _81  and  _82
REMARK   33  A    between atoms: _88  and  _90
REMARK   34  A    between atoms: _90  and  _91
REMARK   35  A    between atoms: _90  and  _93
REMARK   36  A    between atoms: _93  and  _94
REMARK   37  A    between atoms: _96  and  _98
REMARK   38  A    between atoms: _98  and  _99
REMARK   39  A    between atoms: _98  and  _101
REMARK   40  A    between atoms: _101  and  _102
REMARK   41  A    between atoms: _102  and  _103
REMARK   42  A    between atoms: _106  and  _108
REMARK   43  A    between atoms: _108  and  _109
REMARK   44  A    between atoms: _108  and  _111
REMARK   45  A    between atoms: _111  and  _112
REMARK   46  A    between atoms: _115  and  _117
REMARK   47  A    between atoms: _117  and  _118
REMARK   48  A    between atoms: _121  and  _123
REMARK   49  A    between atoms: _123  and  _124
REMARK   50  A    between atoms: _123  and  _126
REMARK   51  A    between atoms: _126  and  _127
REMARK   52  A    between atoms: _130  and  _132
REMARK   53  A    between atoms: _132  and  _133
REMARK   54  A    between atoms: _132  and  _135
REMARK   55  A    between atoms: _135  and  _136
REMARK   56  A    between atoms: _136  and  _137
REMARK   57  A    between atoms: _137  and  _138
REMARK   58  A    between atoms: _138  and  _139
REMARK   59  A    between atoms: _143  and  _145
REMARK   60  A    between atoms: _145  and  _146
REMARK   61  A    between atoms: _145  and  _148
REMARK   62  A    between atoms: _150  and  _152
REMARK   63  A    between atoms: _152  and  _153
REMARK   64  A    between atoms: _152  and  _155
REMARK   65  A    between atoms: _155  and  _156
REMARK   66  A    between atoms: _159  and  _161
REMARK   67  A    between atoms: _161  and  _162
REMARK   68  A    between atoms: _161  and  _164
REMARK   69  A    between atoms: _164  and  _165
REMARK   70  A    between atoms: _165  and  _166
REMARK   71  A    between atoms: _166  and  _167
REMARK   72  A    between atoms: _167  and  _168
REMARK   73  A    between atoms: _172  and  _174
REMARK   74  A    between atoms: _174  and  _175
REMARK   75  A    between atoms: _174  and  _177
REMARK   76  A    between atoms: _177  and  _178
REMARK   77  A    between atoms: _181  and  _183
REMARK   78  A    between atoms: _183  and  _184
REMARK   79  A    between atoms: _183  and  _186
REMARK   80  A    between atoms: _188  and  _190
REMARK   81  A    between atoms: _190  and  _191
REMARK   82  A    between atoms: _190  and  _193
REMARK   83  A    between atoms: _193  and  _194
REMARK   84  A    between atoms: _197  and  _199
REMARK   85  A    between atoms: _199  and  _200
REMARK   86  A    between atoms: _199  and  _202
REMARK   87  A    between atoms: _202  and  _203
REMARK   88  A    between atoms: _206  and  _208
REMARK   89  A    between atoms: _208  and  _209
REMARK   90  A    between atoms: _208  and  _211
REMARK   91  A    between atoms: _211  and  _212
REMARK   92  A    between atoms: _215  and  _217
REMARK   93  A    between atoms: _217  and  _218
REMARK   94  A    between atoms: _217  and  _220
REMARK   95  A    between atoms: _220  and  _221
REMARK   96  A    between atoms: _224  and  _226
REMARK   97  A    between atoms: _226  and  _227
REMARK   98  A    between atoms: _226  and  _229
REMARK   99  A    between atoms: _229  and  _230
REMARK  100  A    between atoms: _230  and  _231
REMARK  101  A    between atoms: _233  and  _235
REMARK  102  A    between atoms: _235  and  _236
REMARK  103  A    between atoms: _235  and  _238
REMARK  104  A    between atoms: _238  and  _239
REMARK  105  A    between atoms: _242  and  _244
REMARK  106  A    between atoms: _244  and  _245
REMARK  107  A    between atoms: _244  and  _247
REMARK  108  A    between atoms: _247  and  _248
REMARK  109  A    between atoms: _248  and  _249
REMARK  110  A    between atoms: _249  and  _250
REMARK  111  A    between atoms: _259  and  _261
REMARK  112  A    between atoms: _261  and  _262
REMARK  113  A    between atoms: _261  and  _264
REMARK  114  A    between atoms: _264  and  _265
REMARK  115  A    between atoms: _268  and  _270
REMARK  116  A    between atoms: _270  and  _271
REMARK  117  A    between atoms: _270  and  _273
REMARK  118  A    between atoms: _275  and  _277
REMARK  119  A    between atoms: _277  and  _278
REMARK  120  A    between atoms: _277  and  _280
REMARK  121  A    between atoms: _280  and  _281
REMARK  122  A    between atoms: _284  and  _286
REMARK  123  A    between atoms: _286  and  _287
REMARK  124  A    between atoms: _286  and  _289
REMARK  125  A    between atoms: _289  and  _290
REMARK  126  A    between atoms: _290  and  _291
REMARK  127  A    between atoms: _291  and  _292
REMARK  128  A    between atoms: _301  and  _303
REMARK  129  A    between atoms: _303  and  _304
REMARK  130  A    between atoms: _303  and  _306
REMARK  131  A    between atoms: _306  and  _307
REMARK  132  A    between atoms: _307  and  _308
REMARK  133  A    between atoms: _310  and  _312
REMARK  134  A    between atoms: _312  and  _313
REMARK  135  A    between atoms: _312  and  _315
REMARK  136  A    between atoms: _315  and  _316
REMARK  137  A    between atoms: _319  and  _321
REMARK  138  A    between atoms: _321  and  _322
REMARK  139  A    between atoms: _321  and  _324
REMARK  140  A    between atoms: _324  and  _325
REMARK  141  A    between atoms: _331  and  _333
REMARK  142  A    between atoms: _333  and  _334
REMARK  143  A    between atoms: _333  and  _336
REMARK  144  A    between atoms: _336  and  _337
REMARK  145  A    between atoms: _339  and  _341
REMARK  146  A    between atoms: _341  and  _342
REMARK  147  A    between atoms: _341  and  _344
REMARK  148  A    between atoms: _344  and  _345
REMARK  149  A    between atoms: _348  and  _350
REMARK  150  A    between atoms: _350  and  _351
REMARK  151  A    between atoms: _353  and  _355
REMARK  152  A    between atoms: _355  and  _356
REMARK  153  A    between atoms: _355  and  _358
REMARK  154  A    between atoms: _358  and  _359
REMARK  155  A    between atoms: _362  and  _364
REMARK  156  A    between atoms: _364  and  _365
REMARK  157  A    between atoms: _364  and  _367
REMARK  158  A    between atoms: _367  and  _368
REMARK  159  A    between atoms: _368  and  _369
REMARK  160  A    between atoms: _371  and  _373
REMARK  161  A    between atoms: _373  and  _374
REMARK  162  A    between atoms: _373  and  _376
REMARK  163  A    between atoms: _376  and  _377
REMARK  164  A    between atoms: _382  and  _384
REMARK  165  A    between atoms: _384  and  _385
REMARK  166  A    between atoms: _388  and  _390
REMARK  167  A    between atoms: _390  and  _391
REMARK  168  A    between atoms: _393  and  _395
REMARK  169  A    between atoms: _395  and  _396
REMARK  170  A    between atoms: _395  and  _398
REMARK  171  A    between atoms: _398  and  _399
REMARK  172  A    between atoms: _405  and  _407
REMARK  173  A    between atoms: _407  and  _408
REMARK  174  A    between atoms: _410  and  _412
REMARK  175  A    between atoms: _412  and  _413
REMARK  176  A    between atoms: _412  and  _415
REMARK  177  A    between atoms: _415  and  _416
REMARK  178  A    between atoms: _419  and  _421
REMARK  179  A    between atoms: _421  and  _422
REMARK  180  A    between atoms: _421  and  _424
REMARK  181  A    between atoms: _424  and  _425
REMARK  182  A    between atoms: _428  and  _430
REMARK  183  A    between atoms: _430  and  _431
REMARK  184  A    between atoms: _430  and  _433
REMARK  185  A    between atoms: _436  and  _438
REMARK  186  A    between atoms: _438  and  _439
REMARK  187  A    between atoms: _438  and  _441
REMARK  188  A    between atoms: _441  and  _442
REMARK  189  A    between atoms: _445  and  _447
REMARK  190  A    between atoms: _447  and  _448
REMARK  191  A    between atoms: _447  and  _450
REMARK  192  A    between atoms: _450  and  _451
REMARK  193  A    between atoms: _453  and  _455
REMARK  194  A    between atoms: _455  and  _456
REMARK  195  A    between atoms: _455  and  _458
REMARK  196  A    between atoms: _458  and  _459
REMARK  197  A    between atoms: _459  and  _460
REMARK  198  A    between atoms: _460  and  _461
REMARK  199  A    between atoms: _461  and  _462
REMARK  200  A    between atoms: _466  and  _468
REMARK  201  A    between atoms: _468  and  _469
REMARK  202  A    between atoms: _471  and  _473
REMARK  203  A    between atoms: _473  and  _474
REMARK  204  A    between atoms: _477  and  _479
REMARK  205  A    between atoms: _479  and  _480
REMARK  206  A    between atoms: _479  and  _482
REMARK  207  A    between atoms: _482  and  _483
REMARK  208  A    between atoms: _483  and  _484
REMARK  209  A    between atoms: _487  and  _489
REMARK  210  A    between atoms: _489  and  _490
REMARK  211  A    between atoms: _489  and  _492
REMARK  212  A    between atoms: _492  and  _493
REMARK  213  A    between atoms: _493  and  _494
REMARK  214  A    between atoms: _494  and  _495
REMARK  215  A    between atoms: _504  and  _506
REMARK  216  A    between atoms: _506  and  _507
REMARK  217  A    between atoms: _510  and  _512
REMARK  218  A    between atoms: _512  and  _513
REMARK  219  A    between atoms: _512  and  _515
REMARK  220  A    between atoms: _515  and  _516
REMARK  221  A    between atoms: _519  and  _521
REMARK  222  A    between atoms: _521  and  _522
REMARK  223  A    between atoms: _521  and  _524
REMARK  224  A    between atoms: _524  and  _525
REMARK  225  A    between atoms: _528  and  _530
REMARK  226  A    between atoms: _530  and  _531
REMARK  227  A    between atoms: _530  and  _533
REMARK  228  A    between atoms: _533  and  _534
REMARK  229  A    between atoms: _537  and  _539
REMARK  230  A    between atoms: _539  and  _540
REMARK  231  A    between atoms: _539  and  _542
REMARK  232  A    between atoms: _542  and  _543
REMARK  233  A    between atoms: _543  and  _544
REMARK  234  A    between atoms: _544  and  _545
REMARK  235  A    between atoms: _545  and  _546
REMARK  236  A    between atoms: _550  and  _552
REMARK  237  A    between atoms: _552  and  _553
REMARK  238  A    between atoms: _552  and  _555
REMARK  239  A    between atoms: _555  and  _556
REMARK  240  A    between atoms: _559  and  _561
REMARK  241  A    between atoms: _561  and  _562
REMARK  242  A    between atoms: _561  and  _564
REMARK  243  A    between atoms: _564  and  _565
REMARK  244  A    between atoms: _565  and  _566
REMARK  245  A    between atoms: _569  and  _570
REMARK  246  A    between atoms: _575  and  _577
REMARK  247  A    between atoms: _577  and  _578
REMARK  248  A    between atoms: _577  and  _580
REMARK  249  A    between atoms: _580  and  _581
REMARK  250  A    between atoms: _584  and  _586
REMARK  251  A    between atoms: _586  and  _587
REMARK  252  A    between atoms: _586  and  _589
REMARK  253  A    between atoms: _589  and  _590
REMARK  254  A    between atoms: _590  and  _591
REMARK  255  A    between atoms: _591  and  _592
REMARK  256  A    between atoms: _601  and  _603
REMARK  257  A    between atoms: _603  and  _604
REMARK  258  A    between atoms: _603  and  _606
REMARK  259  A    between atoms: _606  and  _607
REMARK  260  A    between atoms: _607  and  _608
REMARK  261  A    between atoms: _610  and  _612
REMARK  262  A    between atoms: _612  and  _613
REMARK  263  A    between atoms: _612  and  _615
REMARK  264  A    between atoms: _615  and  _616
REMARK                            x       y       z     vdW  Elec       q    Type
REMARK                         _______ _______ _______ _____ _____    ______ ____
ROOT
ATOM      1  CA  LEU A   5      37.355  22.264  85.307  0.00  0.00    +0.149 C 
ENDROOT
BRANCH   1   2
ATOM      2  C   LEU A   5      38.269  21.297  86.033  0.00  0.00    +0.241 C 
ATOM      3  O   LEU A   5      38.142  21.128  87.255  0.00  0.00    -0.273 OA
ATOM      4  N   ALA A   6      39.217  20.687  85.343  0.00  0.00    -0.297 N 
ATOM      5  H   ALA A   6      39.278  20.846  84.317  0.00  0.00    +0.150 HD
BRANCH   4   6
ATOM      6  CA  ALA A   6      40.185  19.792  85.986  0.00  0.00    +0.149 C 
ATOM      7  CB  ALA A   6      41.077  19.120  84.962  0.00  0.00    +0.031 C 
BRANCH   6   8
ATOM      8  C   ALA A   6      41.022  20.573  87.009  0.00  0.00    +0.241 C 
ATOM      9  O   ALA A   6      41.181  20.105  88.146  0.00  0.00    -0.273 OA
ATOM     10  N   THR A   7      41.535  21.754  86.636  0.00  0.00    -0.295 N 
ATOM     11  H   THR A   7      41.411  22.092  85.660  0.00  0.00    +0.150 HD
BRANCH  10  12
ATOM     12  CA  THR A   7      42.270  22.566  87.605  0.00  0.00    +0.176 C 
BRANCH  12  13
ATOM     13  C   THR A   7      41.439  22.835  88.846  0.00  0.00    +0.243 C 
ATOM     14  O   THR A   7      41.919  22.690  89.991  0.00  0.00    -0.273 OA
ATOM     15  N   LYS A   8      40.197  23.257  88.661  0.00  0.00    -0.297 N 
ATOM     16  H   LYS A   8      39.809  23.359  87.701  0.00  0.00    +0.150 HD
BRANCH  15  17
ATOM     17  CA  LYS A   8      39.376  23.579  89.839  0.00  0.00    +0.149 C 
BRANCH  17  18
ATOM     18  C   LYS A   8      39.182  22.363  90.716  0.00  0.00    +0.241 C 
ATOM     19  O   LYS A   8      39.143  22.444  91.953  0.00  0.00    -0.273 OA
ATOM     20  N   CYS A   9      39.023  21.207  90.106  0.00  0.00    -0.296 N 
ATOM     21  H   CYS A   9      39.056  21.157  89.068  0.00  0.00    +0.150 HD
BRANCH  20  22
ATOM     22  CA  CYS A   9      38.798  19.981  90.900  0.00  0.00    +0.160 C 
BRANCH  22  23
ATOM     23  C   CYS A   9      40.076  19.544  91.606  0.00  0.00    +0.242 C 
ATOM     24  O   CYS A   9      40.034  19.029  92.710  0.00  0.00    -0.273 OA
ATOM     25  N   ILE A  10      41.260  19.794  91.028  0.00  0.00    -0.298 N 
ATOM     26  H   ILE A  10      41.296  20.182  90.064  0.00  0.00    +0.150 HD
BRANCH  25  27
ATOM     27  CA  ILE A  10      42.496  19.522  91.751  0.00  0.00    +0.137 C 
BRANCH  27  28
ATOM     28  CB  ILE A  10      43.696  19.776  90.828  0.00  0.00    +0.026 C 
ATOM     29  CG2 ILE A  10      44.980  19.863  91.659  0.00  0.00    +0.002 C 
BRANCH  28  30
ATOM     30  CG1 ILE A  10      43.814  18.750  89.700  0.00  0.00    +0.002 C 
ATOM     31  CD1 ILE A  10      44.792  19.116  88.580  0.00  0.00    +0.000 C 
ENDBRANCH  28  30
ENDBRANCH  27  28
BRANCH  27  32
ATOM     32  C   ILE A  10      42.563  20.328  93.050  0.00  0.00    +0.227 C 
ATOM     33  O   ILE A  10      42.939  19.823  94.118  0.00  0.00    -0.286 OA
ENDBRANCH  27  32
ENDBRANCH  25  27
ENDBRANCH  22  23
BRANCH  22  34
ATOM     34  CB  CYS A   9      38.249  18.835  90.052  0.00  0.00    +0.098 C 
ATOM     35  SG  CYS A   9      37.608  17.462  91.011  0.00  0.00    -0.080 S 
ENDBRANCH  22  34
ENDBRANCH  20  22
ENDBRANCH  17  18
BRANCH  17  36
ATOM     36  CB  LYS A   8      38.017  24.131  89.391  0.00  0.00    +0.029 C 
BRANCH  36  37
ATOM     37  CG  LYS A   8      38.125  25.518  88.765  0.00  0.00    +0.000 C 
BRANCH  37  38
ATOM     38  CD  LYS A   8      36.826  26.115  88.272  0.00  0.00    -0.024 C 
BRANCH  38  39
ATOM     39  CE  LYS A   8      37.036  27.557  87.792  0.00  0.00    -0.086 C 
BRANCH  39  40
ATOM     40  NZ  LYS A   8      36.895  28.492  88.958  0.00  0.00    +0.380 N 
ATOM     41  HZ1 LYS A   8      37.608  28.256  89.678  0.00  0.00    -0.089 HD
ATOM     42  HZ2 LYS A   8      35.943  28.395  89.366  0.00  0.00    -0.089 HD
ATOM     43  HZ3 LYS A   8      37.037  29.470  88.635  0.00  0.00    -0.089 HD
ENDBRANCH  39  40
ENDBRANCH  38  39
ENDBRANCH  37  38
ENDBRANCH  36  37
ENDBRANCH  17  36
ENDBRANCH  15  17
ENDBRANCH  12  13
BRANCH  12  44
ATOM     44  CB  THR A   7      42.714  23.892  86.954  0.00  0.00    +0.137 C 
ATOM     45  CG2 THR A   7      43.277  24.839  88.004  0.00  0.00    +0.034 C 
BRANCH  44  46
ATOM     46  OG1 THR A   7      43.714  23.601  85.952  0.00  0.00    -0.382 OA
ATOM     47  HG1 THR A   7      44.008  24.445  85.526  0.00  0.00    +0.210 HD
ENDBRANCH  44  46
ENDBRANCH  12  44
ENDBRANCH  10  12
ENDBRANCH   6   8
ENDBRANCH   4   6
ENDBRANCH   1   2
BRANCH   1  50
ATOM     48  C   GLU A   4      39.066  23.866  84.646  0.00  0.00    +0.241 C 
ATOM     49  O   GLU A   4      39.351  24.096  85.837  0.00  0.00    -0.273 OA
ATOM     50  N   LEU A   5      38.103  23.009  84.284  0.00  0.00    -0.297 N 
ATOM     51  H   LEU A   5      37.884  22.870  83.277  0.00  0.00    +0.150 HD
BRANCH  48  52
ATOM     52  CA  GLU A   4      39.825  24.581  83.545  0.00  0.00    +0.149 C 
BRANCH  52  55
ATOM     53  C   SER A   3      40.943  22.615  82.686  0.00  0.00    +0.243 C 
ATOM     54  O   SER A   3      41.513  22.459  83.770  0.00  0.00    -0.273 OA
ATOM     55  N   GLU A   4      40.178  23.668  82.460  0.00  0.00    -0.297 N 
ATOM     56  H   GLU A   4      39.823  23.849  81.499  0.00  0.00    +0.150 HD
BRANCH  53  57
ATOM     57  CA  SER A   3      41.155  21.602  81.587  0.00  0.00    +0.178 C 
BRANCH  57  60
ATOM     58  C   PHE A   2      38.878  20.815  81.367  0.00  0.00    +0.241 C 
ATOM     59  O   PHE A   2      38.872  20.422  82.543  0.00  0.00    -0.273 OA
ATOM     60  N   SER A   3      39.929  21.425  80.816  0.00  0.00    -0.295 N 
ATOM     61  H   SER A   3      39.874  21.774  79.838  0.00  0.00    +0.150 HD
BRANCH  58  62
ATOM     62  CA  PHE A   2      37.682  20.651  80.434  0.00  0.00    +0.153 C 
BRANCH  62  65
ATOM     63  C   LYS A   1      37.077  23.017  80.284  0.00  0.00    +0.238 C 
ATOM     64  O   LYS A   1      37.043  23.127  81.519  0.00  0.00    -0.274 OA
ATOM     65  N   PHE A   2      37.357  21.879  79.675  0.00  0.00    -0.297 N 
ATOM     66  H   PHE A   2      37.349  21.845  78.636  0.00  0.00    +0.150 HD
BRANCH  63  67
ATOM     67  CA  LYS A   1      36.772  24.194  79.384  0.00  0.00    +0.145 C 
BRANCH  67  68
ATOM     68  N   LYS A   1      37.730  24.292  78.290  0.00  0.00    -0.238 NA
ATOM     69  H   LYS A   1      37.419  24.099  77.317  0.00  0.00    +0.142 HD
ENDBRANCH  67  68
BRANCH  67  70
ATOM     70  CB  LYS A   1      35.347  24.101  78.832  0.00  0.00    +0.026 C 
BRANCH  70  71
ATOM     71  CG  LYS A   1      34.301  24.130  79.944  0.00  0.00    -0.000 C 
BRANCH  71  72
ATOM     72  CD  LYS A   1      34.429  25.332  80.865  0.00  0.00    -0.024 C 
BRANCH  72  73
ATOM     73  CE  LYS A   1      33.293  25.465  81.856  0.00  0.00    -0.086 C 
BRANCH  73  74
ATOM     74  NZ  LYS A   1      33.372  26.863  82.435  0.00  0.00    +0.380 N 
ATOM     75  HZ1 LYS A   1      32.604  26.995  83.124  0.00  0.00    -0.089 HD
ATOM     76  HZ2 LYS A   1      34.290  26.990  82.908  0.00  0.00    -0.089 HD
ATOM     77  HZ3 LYS A   1      33.276  27.560  81.669  0.00  0.00    -0.089 HD
ENDBRANCH  73  74
ENDBRANCH  72  73
ENDBRANCH  71  72
ENDBRANCH  70  71
ENDBRANCH  67  70
ENDBRANCH  63  67
ENDBRANCH  62  65
BRANCH  62  78
ATOM     78  CB  PHE A   2      37.956  19.576  79.404  0.00  0.00    +0.055 C 
BRANCH  78  79
ATOM     79  CG  PHE A   2      38.337  18.213  79.916  0.00  0.00    -0.020 A 
ATOM     80  CD2 PHE A   2      37.377  17.248  80.136  0.00  0.00    -0.004 A 
ATOM     81  CE2 PHE A   2      37.748  15.970  80.532  0.00  0.00    -0.000 A 
ATOM     82  CZ  PHE A   2      39.066  15.630  80.696  0.00  0.00    -0.000 A 
ATOM     83  CE1 PHE A   2      40.035  16.597  80.518  0.00  0.00    -0.000 A 
ATOM     84  CD1 PHE A   2      39.658  17.869  80.130  0.00  0.00    -0.004 A 
ENDBRANCH  78  79
ENDBRANCH  62  78
ENDBRANCH  58  62
ENDBRANCH  57  60
BRANCH  57  85
ATOM     85  CB  SER A   3      42.320  21.942  80.661  0.00  0.00    +0.166 C 
BRANCH  85  86
ATOM     86  OG  SER A   3      42.086  23.183  79.988  0.00  0.00    -0.380 OA
ATOM     87  H   SER A   3      41.987  23.906  80.657  0.00  0.00    +0.211 HD
ENDBRANCH  85  86
ENDBRANCH  57  85
ENDBRANCH  53  57
ENDBRANCH  52  55
BRANCH  52  88
ATOM     88  CB  GLU A   4      38.993  25.695  82.908  0.00  0.00    +0.041 C 
BRANCH  88  89
ATOM     89  CG  GLU A   4      38.546  26.777  83.841  0.00  0.00    +0.116 C 
BRANCH  89  90
ATOM     90  CD  GLU A   4      37.485  27.618  83.125  0.00  0.00    +0.365 C 
ATOM     91  OE2 GLU A   4      36.620  28.032  83.921  0.00  0.00    -0.246 OA
ATOM     92  OE1 GLU A   4      37.513  27.835  81.872  0.00  0.00    -0.246 OA
ENDBRANCH  89  90
ENDBRANCH  88  89
ENDBRANCH  52  88
ENDBRANCH  48  52
ENDBRANCH   1  50
BRANCH   1  93
ATOM     93  CB  LEU A   5      36.170  21.561  84.682  0.00  0.00    +0.029 C 
BRANCH  93  94
ATOM     94  CG  LEU A   5      35.094  22.517  84.186  0.00  0.00    +0.002 C 
ATOM     95  CD2 LEU A   5      34.338  23.048  85.370  0.00  0.00    +0.000 C 
ATOM     96  CD1 LEU A   5      34.187  21.810  83.190  0.00  0.00    +0.000 C 
ENDBRANCH  93  94
ENDBRANCH   1  93
TORSDOF 44
REMARK  Name = ../refined-set-2016/1fcx/1fcx_pocket.pdb
REMARK  264 active torsions:
REMARK  status: ('A' for Active; 'I' for Inactive)
REMARK    1  A    between atoms: _1  and  _3
REMARK    2  A    between atoms: _3  and  _4
REMARK    3  A    between atoms: _3  and  _6
REMARK    4  A    between atoms: _6  and  _7
REMARK    5  A    between atoms: _10  and  _12
REMARK    6  A    between atoms: _12  and  _13
REMARK    7  A    between atoms: _12  and  _15
REMARK    8  A    between atoms: _15  and  _16
REMARK    9  A    between atoms: _23  and  _24
REMARK   10  A    between atoms: _29  and  _31
REMARK   11  A    between atoms: _31  and  _32
REMARK   12  A    between atoms: _31  and  _34
REMARK   13  A    between atoms: _34  and  _35
REMARK   14  A    between atoms: _38  and  _40
REMARK   15  A    between atoms: _40  and  _41
REMARK   16  A    between atoms: _40  and  _43
REMARK   17  A    between atoms: _43  and  _44
REMARK   18  A    between atoms: _47  and  _49
REMARK   19  A    between atoms: _49  and  _50
REMARK   20  A    between atoms: _49  and  _52
REMARK   21  A    between atoms: _52  and  _53
REMARK   22  A    between atoms: _63  and  _65
REMARK   23  A    between atoms: _65  and  _66
REMARK   24  A    between atoms: _65  and  _68
REMARK   25  A    between atoms: _68  and  _69
REMARK   26  A    between atoms: _69  and  _70
REMARK   27  A    between atoms: _70  and  _71
REMARK   28  A    between atoms: _71  and  _72
REMARK   29  A    between atoms: _76  and  _78
REMARK   30  A    between atoms: _78  and  _79
REMARK   31  A    between atoms: _78  and  _81
REMARK   32  A    between atoms: _81  and  _82
REMARK   33  A    between atoms: _88  and  _90
REMARK   34  A    between atoms: _90  and  _91
REMARK   35  A    between atoms: _90  and  _93
REMARK   36  A    between atoms: _93  and  _94
REMARK   37  A    between atoms: _96  and  _98
REMARK   38  A    between atoms: _98  and  _99
REMARK   39  A    between atoms: _98  and  _101
REMARK   40  A    between atoms: _101  and  _102
REMARK   41  A    between atoms: _102  and  _103
REMARK   42  A    between atoms: _106  and  _108
REMARK   43  A    between atoms: _108  and  _109
REMARK   44  A    between atoms: _108  and  _111
REMARK   45  A    between atoms: _111  and  _112
REMARK   46  A    between atoms: _115  and  _117
REMARK   47  A    between atoms: _117  and  _118
REMARK   48  A    between atoms: _121  and  _123
REMARK   49  A    between atoms: _123  and  _124
REMARK   50  A    between atoms: _123  and  _126
REMARK   51  A    between atoms: _126  and  _127
REMARK   52  A    between atoms: _130  and  _132
REMARK   53  A    between atoms: _132  and  _133
REMARK   54  A    between atoms: _132  and  _135
REMARK   55  A    between atoms: _135  and  _136
REMARK   56  A    between atoms: _136  and  _137
REMARK   57  A    between atoms: _137  and  _138
REMARK   58  A    between atoms: _138  and  _139
REMARK   59  A    between atoms: _143  and  _145
REMARK   60  A    between atoms: _145  and  _146
REMARK   61  A    between atoms: _145  and  _148
REMARK   62  A    between atoms: _150  and  _152
REMARK   63  A    between atoms: _152  and  _153
REMARK   64  A    between atoms: _152  and  _155
REMARK   65  A    between atoms: _155  and  _156
REMARK   66  A    between atoms: _159  and  _161
REMARK   67  A    between atoms: _161  and  _162
REMARK   68  A    between atoms: _161  and  _164
REMARK   69  A    between atoms: _164  and  _165
REMARK   70  A    between atoms: _165  and  _166
REMARK   71  A    between atoms: _166  and  _167
REMARK   72  A    between atoms: _167  and  _168
REMARK   73  A    between atoms: _172  and  _174
REMARK   74  A    between atoms: _174  and  _175
REMARK   75  A    between atoms: _174  and  _177
REMARK   76  A    between atoms: _177  and  _178
REMARK   77  A    between atoms: _181  and  _183
REMARK   78  A    between atoms: _183  and  _184
REMARK   79  A    between atoms: _183  and  _186
REMARK   80  A    between atoms: _188  and  _190
REMARK   81  A    between atoms: _190  and  _191
REMARK   82  A    between atoms: _190  and  _193
REMARK   83  A    between atoms: _193  and  _194
REMARK   84  A    between atoms: _197  and  _199
REMARK   85  A    between atoms: _199  and  _200
REMARK   86  A    between atoms: _199  and  _202
REMARK   87  A    between atoms: _202  and  _203
REMARK   88  A    between atoms: _206  and  _208
REMARK   89  A    between atoms: _208  and  _209
REMARK   90  A    between atoms: _208  and  _211
REMARK   91  A    between atoms: _211  and  _212
REMARK   92  A    between atoms: _215  and  _217
REMARK   93  A    between atoms: _217  and  _218
REMARK   94  A    between atoms: _217  and  _220
REMARK   95  A    between atoms: _220  and  _221
REMARK   96  A    between atoms: _224  and  _226
REMARK   97  A    between atoms: _226  and  _227
REMARK   98  A    between atoms: _226  and  _229
REMARK   99  A    between atoms: _229  and  _230
REMARK  100  A    between atoms: _230  and  _231
REMARK  101  A    between atoms: _233  and  _235
REMARK  102  A    between atoms: _235  and  _236
REMARK  103  A    between atoms: _235  and  _238
REMARK  104  A    between atoms: _238  and  _239
REMARK  105  A    between atoms: _242  and  _244
REMARK  106  A    between atoms: _244  and  _245
REMARK  107  A    between atoms: _244  and  _247
REMARK  108  A    between atoms: _247  and  _248
REMARK  109  A    between atoms: _248  and  _249
REMARK  110  A    between atoms: _249  and  _250
REMARK  111  A    between atoms: _259  and  _261
REMARK  112  A    between atoms: _261  and  _262
REMARK  113  A    between atoms: _261  and  _264
REMARK  114  A    between atoms: _264  and  _265
REMARK  115  A    between atoms: _268  and  _270
REMARK  116  A    between atoms: _270  and  _271
REMARK  117  A    between atoms: _270  and  _273
REMARK  118  A    between atoms: _275  and  _277
REMARK  119  A    between atoms: _277  and  _278
REMARK  120  A    between atoms: _277  and  _280
REMARK  121  A    between atoms: _280  and  _281
REMARK  122  A    between atoms: _284  and  _286
REMARK  123  A    between atoms: _286  and  _287
REMARK  124  A    between atoms: _286  and  _289
REMARK  125  A    between atoms: _289  and  _290
REMARK  126  A    between atoms: _290  and  _291
REMARK  127  A    between atoms: _291  and  _292
REMARK  128  A    between atoms: _301  and  _303
REMARK  129  A    between atoms: _303  and  _304
REMARK  130  A    between atoms: _303  and  _306
REMARK  131  A    between atoms: _306  and  _307
REMARK  132  A    between atoms: _307  and  _308
REMARK  133  A    between atoms: _310  and  _312
REMARK  134  A    between atoms: _312  and  _313
REMARK  135  A    between atoms: _312  and  _315
REMARK  136  A    between atoms: _315  and  _316
REMARK  137  A    between atoms: _319  and  _321
REMARK  138  A    between atoms: _321  and  _322
REMARK  139  A    between atoms: _321  and  _324
REMARK  140  A    between atoms: _324  and  _325
REMARK  141  A    between atoms: _331  and  _333
REMARK  142  A    between atoms: _333  and  _334
REMARK  143  A    between atoms: _333  and  _336
REMARK  144  A    between atoms: _336  and  _337
REMARK  145  A    between atoms: _339  and  _341
REMARK  146  A    between atoms: _341  and  _342
REMARK  147  A    between atoms: _341  and  _344
REMARK  148  A    between atoms: _344  and  _345
REMARK  149  A    between atoms: _348  and  _350
REMARK  150  A    between atoms: _350  and  _351
REMARK  151  A    between atoms: _353  and  _355
REMARK  152  A    between atoms: _355  and  _356
REMARK  153  A    between atoms: _355  and  _358
REMARK  154  A    between atoms: _358  and  _359
REMARK  155  A    between atoms: _362  and  _364
REMARK  156  A    between atoms: _364  and  _365
REMARK  157  A    between atoms: _364  and  _367
REMARK  158  A    between atoms: _367  and  _368
REMARK  159  A    between atoms: _368  and  _369
REMARK  160  A    between atoms: _371  and  _373
REMARK  161  A    between atoms: _373  and  _374
REMARK  162  A    between atoms: _373  and  _376
REMARK  163  A    between atoms: _376  and  _377
REMARK  164  A    between atoms: _382  and  _384
REMARK  165  A    between atoms: _384  and  _385
REMARK  166  A    between atoms: _388  and  _390
REMARK  167  A    between atoms: _390  and  _391
REMARK  168  A    between atoms: _393  and  _395
REMARK  169  A    between atoms: _395  and  _396
REMARK  170  A    between atoms: _395  and  _398
REMARK  171  A    between atoms: _398  and  _399
REMARK  172  A    between atoms: _405  and  _407
REMARK  173  A    between atoms: _407  and  _408
REMARK  174  A    between atoms: _410  and  _412
REMARK  175  A    between atoms: _412  and  _413
REMARK  176  A    between atoms: _412  and  _415
REMARK  177  A    between atoms: _415  and  _416
REMARK  178  A    between atoms: _419  and  _421
REMARK  179  A    between atoms: _421  and  _422
REMARK  180  A    between atoms: _421  and  _424
REMARK  181  A    between atoms: _424  and  _425
REMARK  182  A    between atoms: _428  and  _430
REMARK  183  A    between atoms: _430  and  _431
REMARK  184  A    between atoms: _430  and  _433
REMARK  185  A    between atoms: _436  and  _438
REMARK  186  A    between atoms: _438  and  _439
REMARK  187  A    between atoms: _438  and  _441
REMARK  188  A    between atoms: _441  and  _442
REMARK  189  A    between atoms: _445  and  _447
REMARK  190  A    between atoms: _447  and  _448
REMARK  191  A    between atoms: _447  and  _450
REMARK  192  A    between atoms: _450  and  _451
REMARK  193  A    between atoms: _453  and  _455
REMARK  194  A    between atoms: _455  and  _456
REMARK  195  A    between atoms: _455  and  _458
REMARK  196  A    between atoms: _458  and  _459
REMARK  197  A    between atoms: _459  and  _460
REMARK  198  A    between atoms: _460  and  _461
REMARK  199  A    between atoms: _461  and  _462
REMARK  200  A    between atoms: _466  and  _468
REMARK  201  A    between atoms: _468  and  _469
REMARK  202  A    between atoms: _471  and  _473
REMARK  203  A    between atoms: _473  and  _474
REMARK  204  A    between atoms: _477  and  _479
REMARK  205  A    between atoms: _479  and  _480
REMARK  206  A    between atoms: _479  and  _482
REMARK  207  A    between atoms: _482  and  _483
REMARK  208  A    between atoms: _483  and  _484
REMARK  209  A    between atoms: _487  and  _489
REMARK  210  A    between atoms: _489  and  _490
REMARK  211  A    between atoms: _489  and  _492
REMARK  212  A    between atoms: _492  and  _493
REMARK  213  A    between atoms: _493  and  _494
REMARK  214  A    between atoms: _494  and  _495
REMARK  215  A    between atoms: _504  and  _506
REMARK  216  A    between atoms: _506  and  _507
REMARK  217  A    between atoms: _510  and  _512
REMARK  218  A    between atoms: _512  and  _513
REMARK  219  A    between atoms: _512  and  _515
REMARK  220  A    between atoms: _515  and  _516
REMARK  221  A    between atoms: _519  and  _521
REMARK  222  A    between atoms: _521  and  _522
REMARK  223  A    between atoms: _521  and  _524
REMARK  224  A    between atoms: _524  and  _525
REMARK  225  A    between atoms: _528  and  _530
REMARK  226  A    between atoms: _530  and  _531
REMARK  227  A    between atoms: _530  and  _533
REMARK  228  A    between atoms: _533  and  _534
REMARK  229  A    between atoms: _537  and  _539
REMARK  230  A    between atoms: _539  and  _540
REMARK  231  A    between atoms: _539  and  _542
REMARK  232  A    between atoms: _542  and  _543
REMARK  233  A    between atoms: _543  and  _544
REMARK  234  A    between atoms: _544  and  _545
REMARK  235  A    between atoms: _545  and  _546
REMARK  236  A    between atoms: _550  and  _552
REMARK  237  A    between atoms: _552  and  _553
REMARK  238  A    between atoms: _552  and  _555
REMARK  239  A    between atoms: _555  and  _556
REMARK  240  A    between atoms: _559  and  _561
REMARK  241  A    between atoms: _561  and  _562
REMARK  242  A    between atoms: _561  and  _564
REMARK  243  A    between atoms: _564  and  _565
REMARK  244  A    between atoms: _565  and  _566
REMARK  245  A    between atoms: _569  and  _570
REMARK  246  A    between atoms: _575  and  _577
REMARK  247  A    between atoms: _577  and  _578
REMARK  248  A    between atoms: _577  and  _580
REMARK  249  A    between atoms: _580  and  _581
REMARK  250  A    between atoms: _584  and  _586
REMARK  251  A    between atoms: _586  and  _587
REMARK  252  A    between atoms: _586  and  _589
REMARK  253  A    between atoms: _589  and  _590
REMARK  254  A    between atoms: _590  and  _591
REMARK  255  A    between atoms: _591  and  _592
REMARK  256  A    between atoms: _601  and  _603
REMARK  257  A    between atoms: _603  and  _604
REMARK  258  A    between atoms: _603  and  _606
REMARK  259  A    between atoms: _606  and  _607
REMARK  260  A    between atoms: _607  and  _608
REMARK  261  A    between atoms: _610  and  _612
REMARK  262  A    between atoms: _612  and  _613
REMARK  263  A    between atoms: _612  and  _615
REMARK  264  A    between atoms: _615  and  _616
REMARK                            x       y       z     vdW  Elec       q    Type
REMARK                         _______ _______ _______ _____ _____    ______ ____
ROOT
ATOM      1  CA  LYS A   1      39.046  20.757  95.633  0.00  0.00    +0.145 C 
ENDROOT
BRANCH   1   2
ATOM      2  C   LYS A   1      39.590  19.488  96.259  0.00  0.00    +0.238 C 
ATOM      3  O   LYS A   1      39.310  19.222  97.438  0.00  0.00    -0.274 OA
ATOM      4  N   ILE A   2      40.384  18.725  95.528  0.00  0.00    -0.298 N 
ATOM      5  H   ILE A   2      40.612  19.013  94.555  0.00  0.00    +0.150 HD
BRANCH   4   6
ATOM      6  CA  ILE A   2      40.949  17.482  96.060  0.00  0.00    +0.137 C 
BRANCH   6   7
ATOM      7  C   ILE A   2      41.985  17.817  97.131  0.00  0.00    +0.227 C 
ATOM      8  O   ILE A   2      42.098  17.141  98.165  0.00  0.00    -0.286 OA
ENDBRANCH   6   7
BRANCH   6   9
ATOM      9  CB  ILE A   2      41.531  16.598  94.939  0.00  0.00    +0.026 C 
ATOM     10  CG2 ILE A   2      42.428  15.516  95.521  0.00  0.00    +0.002 C 
BRANCH   9  11
ATOM     11  CG1 ILE A   2      40.440  16.008  94.061  0.00  0.00    +0.002 C 
ATOM     12  CD1 ILE A   2      40.895  15.543  92.686  0.00  0.00    +0.000 C 
ENDBRANCH   9  11
ENDBRANCH   6   9
ENDBRANCH   4   6
ENDBRANCH   1   2
BRANCH   1  13
ATOM     13  N   LYS A   1      40.016  21.394  94.750  0.00  0.00    -0.238 NA
ATOM     14  H   LYS A   1      39.788  21.483  93.739  0.00  0.00    +0.142 HD
ENDBRANCH   1  13
BRANCH   1  15
ATOM     15  CB  LYS A   1      37.766  20.492  94.872  0.00  0.00    +0.026 C 
BRANCH  15  16
ATOM     16  CG  LYS A   1      36.999  21.743  94.478  0.00  0.00    -0.000 C 
BRANCH  16  17
ATOM     17  CD  LYS A   1      36.438  22.509  95.673  0.00  0.00    -0.024 C 
BRANCH  17  18
ATOM     18  CE  LYS A   1      35.529  23.607  95.131  0.00  0.00    -0.086 C 
BRANCH  18  19
ATOM     19  NZ  LYS A   1      34.944  24.383  96.197  0.00  0.00    +0.380 N 
ATOM     20  HZ1 LYS A   1      34.379  23.759  96.809  0.00  0.00    -0.089 HD
ATOM     21  HZ2 LYS A   1      35.700  24.827  96.756  0.00  0.00    -0.089 HD
ATOM     22  HZ3 LYS A   1      34.332  25.120  95.792  0.00  0.00    -0.089 HD
ENDBRANCH  18  19
ENDBRANCH  17  18
ENDBRANCH  16  17
ENDBRANCH  15  16
ENDBRANCH   1  15
TORSDOF 11
REMARK  Name = ../refined-set-2016/1fcx/1fcx_pocket.pdb
REMARK  264 active torsions:
REMARK  status: ('A' for Active; 'I' for Inactive)
REMARK    1  A    between atoms: _1  and  _3
REMARK    2  A    between atoms: _3  and  _4
REMARK    3  A    between atoms: _3  and  _6
REMARK    4  A    between atoms: _6  and  _7
REMARK    5  A    between atoms: _10  and  _12
REMARK    6  A    between atoms: _12  and  _13
REMARK    7  A    between atoms: _12  and  _15
REMARK    8  A    between atoms: _15  and  _16
REMARK    9  A    between atoms: _23  and  _24
REMARK   10  A    between atoms: _29  and  _31
REMARK   11  A    between atoms: _31  and  _32
REMARK   12  A    between atoms: _31  and  _34
REMARK   13  A    between atoms: _34  and  _35
REMARK   14  A    between atoms: _38  and  _40
REMARK   15  A    between atoms: _40  and  _41
REMARK   16  A    between atoms: _40  and  _43
REMARK   17  A    between atoms: _43  and  _44
REMARK   18  A    between atoms: _47  and  _49
REMARK   19  A    between atoms: _49  and  _50
REMARK   20  A    between atoms: _49  and  _52
REMARK   21  A    between atoms: _52  and  _53
REMARK   22  A    between atoms: _63  and  _65
REMARK   23  A    between atoms: _65  and  _66
REMARK   24  A    between atoms: _65  and  _68
REMARK   25  A    between atoms: _68  and  _69
REMARK   26  A    between atoms: _69  and  _70
REMARK   27  A    between atoms: _70  and  _71
REMARK   28  A    between atoms: _71  and  _72
REMARK   29  A    between atoms: _76  and  _78
REMARK   30  A    between atoms: _78  and  _79
REMARK   31  A    between atoms: _78  and  _81
REMARK   32  A    between atoms: _81  and  _82
REMARK   33  A    between atoms: _88  and  _90
REMARK   34  A    between atoms: _90  and  _91
REMARK   35  A    between atoms: _90  and  _93
REMARK   36  A    between atoms: _93  and  _94
REMARK   37  A    between atoms: _96  and  _98
REMARK   38  A    between atoms: _98  and  _99
REMARK   39  A    between atoms: _98  and  _101
REMARK   40  A    between atoms: _101  and  _102
REMARK   41  A    between atoms: _102  and  _103
REMARK   42  A    between atoms: _106  and  _108
REMARK   43  A    between atoms: _108  and  _109
REMARK   44  A    between atoms: _108  and  _111
REMARK   45  A    between atoms: _111  and  _112
REMARK   46  A    between atoms: _115  and  _117
REMARK   47  A    between atoms: _117  and  _118
REMARK   48  A    between atoms: _121  and  _123
REMARK   49  A    between atoms: _123  and  _124
REMARK   50  A    between atoms: _123  and  _126
REMARK   51  A    between atoms: _126  and  _127
REMARK   52  A    between atoms: _130  and  _132
REMARK   53  A    between atoms: _132  and  _133
REMARK   54  A    between atoms: _132  and  _135
REMARK   55  A    between atoms: _135  and  _136
REMARK   56  A    between atoms: _136  and  _137
REMARK   57  A    between atoms: _137  and  _138
REMARK   58  A    between atoms: _138  and  _139
REMARK   59  A    between atoms: _143  and  _145
REMARK   60  A    between atoms: _145  and  _146
REMARK   61  A    between atoms: _145  and  _148
REMARK   62  A    between atoms: _150  and  _152
REMARK   63  A    between atoms: _152  and  _153
REMARK   64  A    between atoms: _152  and  _155
REMARK   65  A    between atoms: _155  and  _156
REMARK   66  A    between atoms: _159  and  _161
REMARK   67  A    between atoms: _161  and  _162
REMARK   68  A    between atoms: _161  and  _164
REMARK   69  A    between atoms: _164  and  _165
REMARK   70  A    between atoms: _165  and  _166
REMARK   71  A    between atoms: _166  and  _167
REMARK   72  A    between atoms: _167  and  _168
REMARK   73  A    between atoms: _172  and  _174
REMARK   74  A    between atoms: _174  and  _175
REMARK   75  A    between atoms: _174  and  _177
REMARK   76  A    between atoms: _177  and  _178
REMARK   77  A    between atoms: _181  and  _183
REMARK   78  A    between atoms: _183  and  _184
REMARK   79  A    between atoms: _183  and  _186
REMARK   80  A    between atoms: _188  and  _190
REMARK   81  A    between atoms: _190  and  _191
REMARK   82  A    between atoms: _190  and  _193
REMARK   83  A    between atoms: _193  and  _194
REMARK   84  A    between atoms: _197  and  _199
REMARK   85  A    between atoms: _199  and  _200
REMARK   86  A    between atoms: _199  and  _202
REMARK   87  A    between atoms: _202  and  _203
REMARK   88  A    between atoms: _206  and  _208
REMARK   89  A    between atoms: _208  and  _209
REMARK   90  A    between atoms: _208  and  _211
REMARK   91  A    between atoms: _211  and  _212
REMARK   92  A    between atoms: _215  and  _217
REMARK   93  A    between atoms: _217  and  _218
REMARK   94  A    between atoms: _217  and  _220
REMARK   95  A    between atoms: _220  and  _221
REMARK   96  A    between atoms: _224  and  _226
REMARK   97  A    between atoms: _226  and  _227
REMARK   98  A    between atoms: _226  and  _229
REMARK   99  A    between atoms: _229  and  _230
REMARK  100  A    between atoms: _230  and  _231
REMARK  101  A    between atoms: _233  and  _235
REMARK  102  A    between atoms: _235  and  _236
REMARK  103  A    between atoms: _235  and  _238
REMARK  104  A    between atoms: _238  and  _239
REMARK  105  A    between atoms: _242  and  _244
REMARK  106  A    between atoms: _244  and  _245
REMARK  107  A    between atoms: _244  and  _247
REMARK  108  A    between atoms: _247  and  _248
REMARK  109  A    between atoms: _248  and  _249
REMARK  110  A    between atoms: _249  and  _250
REMARK  111  A    between atoms: _259  and  _261
REMARK  112  A    between atoms: _261  and  _262
REMARK  113  A    between atoms: _261  and  _264
REMARK  114  A    between atoms: _264  and  _265
REMARK  115  A    between atoms: _268  and  _270
REMARK  116  A    between atoms: _270  and  _271
REMARK  117  A    between atoms: _270  and  _273
REMARK  118  A    between atoms: _275  and  _277
REMARK  119  A    between atoms: _277  and  _278
REMARK  120  A    between atoms: _277  and  _280
REMARK  121  A    between atoms: _280  and  _281
REMARK  122  A    between atoms: _284  and  _286
REMARK  123  A    between atoms: _286  and  _287
REMARK  124  A    between atoms: _286  and  _289
REMARK  125  A    between atoms: _289  and  _290
REMARK  126  A    between atoms: _290  and  _291
REMARK  127  A    between atoms: _291  and  _292
REMARK  128  A    between atoms: _301  and  _303
REMARK  129  A    between atoms: _303  and  _304
REMARK  130  A    between atoms: _303  and  _306
REMARK  131  A    between atoms: _306  and  _307
REMARK  132  A    between atoms: _307  and  _308
REMARK  133  A    between atoms: _310  and  _312
REMARK  134  A    between atoms: _312  and  _313
REMARK  135  A    between atoms: _312  and  _315
REMARK  136  A    between atoms: _315  and  _316
REMARK  137  A    between atoms: _319  and  _321
REMARK  138  A    between atoms: _321  and  _322
REMARK  139  A    between atoms: _321  and  _324
REMARK  140  A    between atoms: _324  and  _325
REMARK  141  A    between atoms: _331  and  _333
REMARK  142  A    between atoms: _333  and  _334
REMARK  143  A    between atoms: _333  and  _336
REMARK  144  A    between atoms: _336  and  _337
REMARK  145  A    between atoms: _339  and  _341
REMARK  146  A    between atoms: _341  and  _342
REMARK  147  A    between atoms: _341  and  _344
REMARK  148  A    between atoms: _344  and  _345
REMARK  149  A    between atoms: _348  and  _350
REMARK  150  A    between atoms: _350  and  _351
REMARK  151  A    between atoms: _353  and  _355
REMARK  152  A    between atoms: _355  and  _356
REMARK  153  A    between atoms: _355  and  _358
REMARK  154  A    between atoms: _358  and  _359
REMARK  155  A    between atoms: _362  and  _364
REMARK  156  A    between atoms: _364  and  _365
REMARK  157  A    between atoms: _364  and  _367
REMARK  158  A    between atoms: _367  and  _368
REMARK  159  A    between atoms: _368  and  _369
REMARK  160  A    between atoms: _371  and  _373
REMARK  161  A    between atoms: _373  and  _374
REMARK  162  A    between atoms: _373  and  _376
REMARK  163  A    between atoms: _376  and  _377
REMARK  164  A    between atoms: _382  and  _384
REMARK  165  A    between atoms: _384  and  _385
REMARK  166  A    between atoms: _388  and  _390
REMARK  167  A    between atoms: _390  and  _391
REMARK  168  A    between atoms: _393  and  _395
REMARK  169  A    between atoms: _395  and  _396
REMARK  170  A    between atoms: _395  and  _398
REMARK  171  A    between atoms: _398  and  _399
REMARK  172  A    between atoms: _405  and  _407
REMARK  173  A    between atoms: _407  and  _408
REMARK  174  A    between atoms: _410  and  _412
REMARK  175  A    between atoms: _412  and  _413
REMARK  176  A    between atoms: _412  and  _415
REMARK  177  A    between atoms: _415  and  _416
REMARK  178  A    between atoms: _419  and  _421
REMARK  179  A    between atoms: _421  and  _422
REMARK  180  A    between atoms: _421  and  _424
REMARK  181  A    between atoms: _424  and  _425
REMARK  182  A    between atoms: _428  and  _430
REMARK  183  A    between atoms: _430  and  _431
REMARK  184  A    between atoms: _430  and  _433
REMARK  185  A    between atoms: _436  and  _438
REMARK  186  A    between atoms: _438  and  _439
REMARK  187  A    between atoms: _438  and  _441
REMARK  188  A    between atoms: _441  and  _442
REMARK  189  A    between atoms: _445  and  _447
REMARK  190  A    between atoms: _447  and  _448
REMARK  191  A    between atoms: _447  and  _450
REMARK  192  A    between atoms: _450  and  _451
REMARK  193  A    between atoms: _453  and  _455
REMARK  194  A    between atoms: _455  and  _456
REMARK  195  A    between atoms: _455  and  _458
REMARK  196  A    between atoms: _458  and  _459
REMARK  197  A    between atoms: _459  and  _460
REMARK  198  A    between atoms: _460  and  _461
REMARK  199  A    between atoms: _461  and  _462
REMARK  200  A    between atoms: _466  and  _468
REMARK  201  A    between atoms: _468  and  _469
REMARK  202  A    between atoms: _471  and  _473
REMARK  203  A    between atoms: _473  and  _474
REMARK  204  A    between atoms: _477  and  _479
REMARK  205  A    between atoms: _479  and  _480
REMARK  206  A    between atoms: _479  and  _482
REMARK  207  A    between atoms: _482  and  _483
REMARK  208  A    between atoms: _483  and  _484
REMARK  209  A    between atoms: _487  and  _489
REMARK  210  A    between atoms: _489  and  _490
REMARK  211  A    between atoms: _489  and  _492
REMARK  212  A    between atoms: _492  and  _493
REMARK  213  A    between atoms: _493  and  _494
REMARK  214  A    between atoms: _494  and  _495
REMARK  215  A    between atoms: _504  and  _506
REMARK  216  A    between atoms: _506  and  _507
REMARK  217  A    between atoms: _510  and  _512
REMARK  218  A    between atoms: _512  and  _513
REMARK  219  A    between atoms: _512  and  _515
REMARK  220  A    between atoms: _515  and  _516
REMARK  221  A    between atoms: _519  and  _521
REMARK  222  A    between atoms: _521  and  _522
REMARK  223  A    between atoms: _521  and  _524
REMARK  224  A    between atoms: _524  and  _525
REMARK  225  A    between atoms: _528  and  _530
REMARK  226  A    between atoms: _530  and  _531
REMARK  227  A    between atoms: _530  and  _533
REMARK  228  A    between atoms: _533  and  _534
REMARK  229  A    between atoms: _537  and  _539
REMARK  230  A    between atoms: _539  and  _540
REMARK  231  A    between atoms: _539  and  _542
REMARK  232  A    between atoms: _542  and  _543
REMARK  233  A    between atoms: _543  and  _544
REMARK  234  A    between atoms: _544  and  _545
REMARK  235  A    between atoms: _545  and  _546
REMARK  236  A    between atoms: _550  and  _552
REMARK  237  A    between atoms: _552  and  _553
REMARK  238  A    between atoms: _552  and  _555
REMARK  239  A    between atoms: _555  and  _556
REMARK  240  A    between atoms: _559  and  _561
REMARK  241  A    between atoms: _561  and  _562
REMARK  242  A    between atoms: _561  and  _564
REMARK  243  A    between atoms: _564  and  _565
REMARK  244  A    between atoms: _565  and  _566
REMARK  245  A    between atoms: _569  and  _570
REMARK  246  A    between atoms: _575  and  _577
REMARK  247  A    between atoms: _577  and  _578
REMARK  248  A    between atoms: _577  and  _580
REMARK  249  A    between atoms: _580  and  _581
REMARK  250  A    between atoms: _584  and  _586
REMARK  251  A    between atoms: _586  and  _587
REMARK  252  A    between atoms: _586  and  _589
REMARK  253  A    between atoms: _589  and  _590
REMARK  254  A    between atoms: _590  and  _591
REMARK  255  A    between atoms: _591  and  _592
REMARK  256  A    between atoms: _601  and  _603
REMARK  257  A    between atoms: _603  and  _604
REMARK  258  A    between atoms: _603  and  _606
REMARK  259  A    between atoms: _606  and  _607
REMARK  260  A    between atoms: _607  and  _608
REMARK  261  A    between atoms: _610  and  _612
REMARK  262  A    between atoms: _612  and  _613
REMARK  263  A    between atoms: _612  and  _615
REMARK  264  A    between atoms: _615  and  _616
REMARK                            x       y       z     vdW  Elec       q    Type
REMARK                         _______ _______ _______ _____ _____    ______ ____
ROOT
ATOM      1  C   LEU A   7      35.813   9.333  90.208  0.00  0.00    +0.241 C 
ATOM      2  N   ARG A   8      36.114  10.576  90.509  0.00  0.00    -0.297 N 
ATOM      3  H   ARG A   8      37.112  10.818  90.672  0.00  0.00    +0.150 HD
ATOM      4  O   LEU A   7      34.662   8.987  90.003  0.00  0.00    -0.273 OA
ENDROOT
BRANCH   1   5
ATOM      5  CA  LEU A   7      36.960   8.314  90.161  0.00  0.00    +0.149 C 
BRANCH   5   7
ATOM      6  C   MET A   6      37.897   9.143  88.085  0.00  0.00    +0.241 C 
ATOM      7  N   LEU A   7      38.058   8.852  89.380  0.00  0.00    -0.297 N 
ATOM      8  H   LEU A   7      38.980   9.013  89.832  0.00  0.00    +0.150 HD
ATOM      9  O   MET A   6      36.816   8.968  87.522  0.00  0.00    -0.273 OA
BRANCH   6  10
ATOM     10  CA  MET A   6      39.076   9.747  87.344  0.00  0.00    +0.149 C 
BRANCH  10  13
ATOM     11  C   LEU A   5      39.087  11.873  88.535  0.00  0.00    +0.241 C 
ATOM     12  O   LEU A   5      37.905  12.060  88.237  0.00  0.00    -0.273 OA
ATOM     13  N   MET A   6      39.732  10.778  88.149  0.00  0.00    -0.297 N 
ATOM     14  H   MET A   6      40.726  10.650  88.425  0.00  0.00    +0.150 HD
BRANCH  11  15
ATOM     15  CA  LEU A   5      39.866  12.890  89.355  0.00  0.00    +0.149 C 
BRANCH  15  18
ATOM     16  C   ILE A   4      39.920  11.502  91.357  0.00  0.00    +0.241 C 
ATOM     17  O   ILE A   4      38.688  11.423  91.345  0.00  0.00    -0.273 OA
ATOM     18  N   LEU A   5      40.558  12.239  90.460  0.00  0.00    -0.297 N 
ATOM     19  H   LEU A   5      41.588  12.357  90.547  0.00  0.00    +0.150 HD
BRANCH  16  20
ATOM     20  CA  ILE A   4      40.741  10.700  92.367  0.00  0.00    +0.149 C 
BRANCH  20  22
ATOM     21  C   ASP A   3      41.861   9.153  90.880  0.00  0.00    +0.241 C 
ATOM     22  N   ILE A   4      41.953  10.159  91.755  0.00  0.00    -0.297 N 
ATOM     23  H   ILE A   4      42.883  10.555  91.999  0.00  0.00    +0.150 HD
ATOM     24  O   ASP A   3      40.784   8.634  90.537  0.00  0.00    -0.273 OA
BRANCH  21  25
ATOM     25  CA  ASP A   3      43.178   8.591  90.349  0.00  0.00    +0.160 C 
BRANCH  25  27
ATOM     26  C   LEU A   2      43.720  10.554  89.042  0.00  0.00    +0.241 C 
ATOM     27  N   ASP A   3      44.086   9.644  89.931  0.00  0.00    -0.297 N 
ATOM     28  H   ASP A   3      45.042   9.684  90.338  0.00  0.00    +0.150 HD
ATOM     29  O   LEU A   2      42.629  10.470  88.473  0.00  0.00    -0.273 OA
BRANCH  26  30
ATOM     30  CA  LEU A   2      44.655  11.718  88.764  0.00  0.00    +0.149 C 
BRANCH  30  33
ATOM     31  C   CYS A   1      44.547  12.746  90.946  0.00  0.00    +0.239 C 
ATOM     32  O   CYS A   1      43.336  12.897  90.790  0.00  0.00    -0.274 OA
ATOM     33  N   LEU A   2      45.284  12.150  90.007  0.00  0.00    -0.297 N 
ATOM     34  H   LEU A   2      46.301  11.994  90.160  0.00  0.00    +0.150 HD
BRANCH  31  35
ATOM     35  CA  CYS A   1      45.216  13.221  92.224  0.00  0.00    +0.156 C 
BRANCH  35  36
ATOM     36  N   CYS A   1      46.231  12.290  92.684  0.00  0.00    -0.237 NA
ATOM     37  H   CYS A   1      47.229  12.573  92.760  0.00  0.00    +0.142 HD
ENDBRANCH  35  36
BRANCH  35  38
ATOM     38  CB  CYS A   1      45.932  14.556  92.012  0.00  0.00    +0.095 C 
ATOM     39  SG  CYS A   1      44.691  15.849  91.920  0.00  0.00    -0.080 S 
ENDBRANCH  35  38
ENDBRANCH  31  35
ENDBRANCH  30  33
BRANCH  30  40
ATOM     40  CB  LEU A   2      45.640  11.411  87.638  0.00  0.00    +0.029 C 
BRANCH  40  41
ATOM     41  CG  LEU A   2      45.089  11.136  86.245  0.00  0.00    +0.002 C 
ATOM     42  CD2 LEU A   2      44.180  12.245  85.748  0.00  0.00    +0.000 C 
ATOM     43  CD1 LEU A   2      46.273  10.914  85.293  0.00  0.00    +0.000 C 
ENDBRANCH  40  41
ENDBRANCH  30  40
ENDBRANCH  26  30
ENDBRANCH  25  27
BRANCH  25  44
ATOM     44  CB  ASP A   3      43.816   7.729  91.449  0.00  0.00    +0.143 C 
BRANCH  44  45
ATOM     45  CG  ASP A   3      45.036   7.006  90.929  0.00  0.00    +0.367 C 
ATOM     46  OD2 ASP A   3      46.128   7.588  90.934  0.00  0.00    -0.246 OA
ATOM     47  OD1 ASP A   3      44.961   5.852  90.499  0.00  0.00    -0.246 OA
ENDBRANCH  44  45
ENDBRANCH  25  44
ENDBRANCH  21  25
ENDBRANCH  20  22
BRANCH  20  48
ATOM     48  CB  ILE A   4      41.128  11.512  93.620  0.00  0.00    +0.027 C 
ATOM     49  CG2 ILE A   4      39.918  12.230  94.200  0.00  0.00    +0.002 C 
BRANCH  48  50
ATOM     50  CG1 ILE A   4      41.744  10.625  94.687  0.00  0.00    +0.002 C 
ATOM     51  CD1 ILE A   4      42.435  11.349  95.820  0.00  0.00    +0.000 C 
ENDBRANCH  48  50
ENDBRANCH  20  48
ENDBRANCH  16  20
ENDBRANCH  15  18
BRANCH  15  52
ATOM     52  CB  LEU A   5      40.855  13.614  88.433  0.00  0.00    +0.029 C 
BRANCH  52  53
ATOM     53  CG  LEU A   5      41.387  14.954  88.940  0.00  0.00    +0.002 C 
ATOM     54  CD2 LEU A   5      40.327  16.032  88.931  0.00  0.00    +0.000 C 
ATOM     55  CD1 LEU A   5      42.591  15.384  88.112  0.00  0.00    +0.000 C 
ENDBRANCH  52  53
ENDBRANCH  15  52
ENDBRANCH  11  15
ENDBRANCH  10  13
BRANCH  10  56
ATOM     56  CB  MET A   6      40.078   8.626  86.965  0.00  0.00    +0.041 C 
BRANCH  56  57
ATOM     57  CG  MET A   6      41.139   9.041  85.997  0.00  0.00    +0.060 C 
BRANCH  57  58
ATOM     58  SD  MET A   6      40.500   9.366  84.330  0.00  0.00    -0.139 S 
ATOM     59  CE  MET A   6      42.078   9.440  83.444  0.00  0.00    +0.069 C 
ENDBRANCH  57  58
ENDBRANCH  56  57
ENDBRANCH  10  56
ENDBRANCH   6  10
ENDBRANCH   5   7
BRANCH   5  60
ATOM     60  CB  LEU A   7      37.428   7.968  91.567  0.00  0.00    +0.029 C 
BRANCH  60  61
ATOM     61  CG  LEU A   7      36.346   7.471  92.522  0.00  0.00    +0.002 C 
ATOM     62  CD2 LEU A   7      36.966   7.217  93.897  0.00  0.00    +0.000 C 
ATOM     63  CD1 LEU A   7      35.656   6.212  92.013  0.00  0.00    +0.000 C 
ENDBRANCH  60  61
ENDBRANCH   5  60
ENDBRANCH   1   5
BRANCH   2  64
ATOM     64  CA  ARG A   8      35.117  11.631  90.626  0.00  0.00    +0.149 C 
BRANCH  64  65
ATOM     65  C   ARG A   8      34.306  11.738  89.334  0.00  0.00    +0.241 C 
ATOM     66  O   ARG A   8      33.067  11.738  89.370  0.00  0.00    -0.273 OA
ATOM     67  N   ILE A   9      34.944  11.861  88.176  0.00  0.00    -0.297 N 
ATOM     68  H   ILE A   9      35.981  11.806  88.127  0.00  0.00    +0.150 HD
BRANCH  67  69
ATOM     69  CA  ILE A   9      34.133  12.079  86.957  0.00  0.00    +0.149 C 
BRANCH  69  70
ATOM     70  C   ILE A   9      33.334  10.834  86.654  0.00  0.00    +0.241 C 
ATOM     71  N   CYS A  10      33.878   9.647  86.954  0.00  0.00    -0.296 N 
ATOM     72  H   CYS A  10      34.831   9.591  87.367  0.00  0.00    +0.150 HD
ATOM     73  O   ILE A   9      32.193  10.953  86.194  0.00  0.00    -0.273 OA
BRANCH  71  74
ATOM     74  CA  CYS A  10      33.106   8.426  86.689  0.00  0.00    +0.160 C 
BRANCH  74  75
ATOM     75  C   CYS A  10      31.903   8.261  87.611  0.00  0.00    +0.242 C 
ATOM     76  N   THR A  11      31.929   8.860  88.809  0.00  0.00    -0.295 N 
ATOM     77  H   THR A  11      32.805   9.321  89.129  0.00  0.00    +0.150 HD
ATOM     78  O   CYS A  10      30.917   7.615  87.232  0.00  0.00    -0.273 OA
BRANCH  76  79
ATOM     79  CA  THR A  11      30.763   8.879  89.668  0.00  0.00    +0.176 C 
BRANCH  79  80
ATOM     80  C   THR A  11      29.678   9.845  89.148  0.00  0.00    +0.243 C 
ATOM     81  O   THR A  11      28.560   9.824  89.720  0.00  0.00    -0.273 OA
ATOM     82  N   ARG A  12      30.018  10.650  88.172  0.00  0.00    -0.298 N 
ATOM     83  H   ARG A  12      30.982  10.600  87.786  0.00  0.00    +0.150 HD
BRANCH  82  84
ATOM     84  CA  ARG A  12      29.065  11.626  87.607  0.00  0.00    +0.137 C 
BRANCH  84  85
ATOM     85  C   ARG A  12      28.532  11.136  86.280  0.00  0.00    +0.227 C 
ATOM     86  O   ARG A  12      28.065  11.884  85.429  0.00  0.00    -0.286 OA
ENDBRANCH  84  85
BRANCH  84  87
ATOM     87  CB  ARG A  12      29.748  12.979  87.425  0.00  0.00    +0.031 C 
BRANCH  87  88
ATOM     88  CG  ARG A  12      30.136  13.627  88.751  0.00  0.00    +0.045 C 
BRANCH  88  89
ATOM     89  CD  ARG A  12      29.058  14.652  89.145  0.00  0.00    +0.174 C 
BRANCH  89  90
ATOM     90  NE  ARG A  12      29.448  15.460  90.287  0.00  0.00    -0.265 N 
ATOM     91  HE  ARG A  12      29.031  15.238  91.213  0.00  0.00    +0.259 HD
ATOM     92  CZ  ARG A  12      30.297  16.452  90.211  0.00  0.00    +0.342 C 
ATOM     93  NH2 ARG A  12      30.588  17.120  91.315  0.00  0.00    -0.292 N 
ATOM     94 HH21 ARG A  12      30.145  16.852  92.217  0.00  0.00    +0.255 HD
ATOM     95 HH22 ARG A  12      31.260  17.913  91.281  0.00  0.00    +0.255 HD
ATOM     96  NH1 ARG A  12      30.854  16.780  89.055  0.00  0.00    -0.292 N 
ATOM     97 HH11 ARG A  12      31.528  17.571  89.008  0.00  0.00    +0.255 HD
ATOM     98 HH12 ARG A  12      30.618  16.247  88.194  0.00  0.00    +0.255 HD
ENDBRANCH  89  90
ENDBRANCH  88  89
ENDBRANCH  87  88
ENDBRANCH  84  87
ENDBRANCH  82  84
ENDBRANCH  79  80
BRANCH  79  99
ATOM     99  CB  THR A  11      31.041   9.294  91.123  0.00  0.00    +0.137 C 
ATOM    100  CG2 THR A  11      32.170   8.407  91.578  0.00  0.00    +0.034 C 
BRANCH  99 101
ATOM    101  OG1 THR A  11      31.362  10.679  91.222  0.00  0.00    -0.382 OA
ATOM    102  HG1 THR A  11      32.170  10.869  90.683  0.00  0.00    +0.210 HD
ENDBRANCH  99 101
ENDBRANCH  79  99
ENDBRANCH  76  79
ENDBRANCH  74  75
BRANCH  74 103
ATOM    103  CB  CYS A  10      34.030   7.220  86.748  0.00  0.00    +0.098 C 
ATOM    104  SG  CYS A  10      35.153   7.144  85.332  0.00  0.00    -0.080 S 
ENDBRANCH  74 103
ENDBRANCH  71  74
ENDBRANCH  69  70
BRANCH  69 105
ATOM    105  CB  ILE A   9      34.990  12.576  85.793  0.00  0.00    +0.027 C 
ATOM    106  CG2 ILE A   9      35.874  11.486  85.240  0.00  0.00    +0.002 C 
BRANCH 105 107
ATOM    107  CG1 ILE A   9      34.127  13.180  84.676  0.00  0.00    +0.002 C 
ATOM    108  CD1 ILE A   9      33.324  14.396  85.074  0.00  0.00    +0.000 C 
ENDBRANCH 105 107
ENDBRANCH  69 105
ENDBRANCH  67  69
ENDBRANCH  64  65
BRANCH  64 109
ATOM    109  CB  ARG A   8      35.778  12.947  91.026  0.00  0.00    +0.033 C 
BRANCH 109 110
ATOM    110  CG  ARG A   8      36.045  13.110  92.526  0.00  0.00    +0.045 C 
BRANCH 110 111
ATOM    111  CD  ARG A   8      36.739  14.435  92.859  0.00  0.00    +0.174 C 
BRANCH 111 112
ATOM    112  NE  ARG A   8      36.755  14.552  94.325  0.00  0.00    -0.265 N 
ATOM    113  CZ  ARG A   8      36.634  15.694  95.015  0.00  0.00    +0.342 C 
ATOM    114  NH2 ARG A   8      36.627  15.655  96.343  0.00  0.00    -0.292 N 
ATOM    115 HH21 ARG A   8      36.534  16.535  96.889  0.00  0.00    +0.255 HD
ATOM    116 HH22 ARG A   8      36.715  14.744  96.837  0.00  0.00    +0.255 HD
ATOM    117  NH1 ARG A   8      36.561  16.899  94.441  0.00  0.00    -0.292 N 
ATOM    118 HH11 ARG A   8      36.468  17.751  95.030  0.00  0.00    +0.255 HD
ATOM    119 HH12 ARG A   8      36.598  16.985  93.405  0.00  0.00    +0.255 HD
ATOM    120  HE  ARG A   8      36.870  13.675  94.872  0.00  0.00    +0.259 HD
ENDBRANCH 111 112
ENDBRANCH 110 111
ENDBRANCH 109 110
ENDBRANCH  64 109
ENDBRANCH   2  64
TORSDOF 51
REMARK  Name = ../refined-set-2016/1fcx/1fcx_pocket.pdb
REMARK  264 active torsions:
REMARK  status: ('A' for Active; 'I' for Inactive)
REMARK    1  A    between atoms: _1  and  _3
REMARK    2  A    between atoms: _3  and  _4
REMARK    3  A    between atoms: _3  and  _6
REMARK    4  A    between atoms: _6  and  _7
REMARK    5  A    between atoms: _10  and  _12
REMARK    6  A    between atoms: _12  and  _13
REMARK    7  A    between atoms: _12  and  _15
REMARK    8  A    between atoms: _15  and  _16
REMARK    9  A    between atoms: _23  and  _24
REMARK   10  A    between atoms: _29  and  _31
REMARK   11  A    between atoms: _31  and  _32
REMARK   12  A    between atoms: _31  and  _34
REMARK   13  A    between atoms: _34  and  _35
REMARK   14  A    between atoms: _38  and  _40
REMARK   15  A    between atoms: _40  and  _41
REMARK   16  A    between atoms: _40  and  _43
REMARK   17  A    between atoms: _43  and  _44
REMARK   18  A    between atoms: _47  and  _49
REMARK   19  A    between atoms: _49  and  _50
REMARK   20  A    between atoms: _49  and  _52
REMARK   21  A    between atoms: _52  and  _53
REMARK   22  A    between atoms: _63  and  _65
REMARK   23  A    between atoms: _65  and  _66
REMARK   24  A    between atoms: _65  and  _68
REMARK   25  A    between atoms: _68  and  _69
REMARK   26  A    between atoms: _69  and  _70
REMARK   27  A    between atoms: _70  and  _71
REMARK   28  A    between atoms: _71  and  _72
REMARK   29  A    between atoms: _76  and  _78
REMARK   30  A    between atoms: _78  and  _79
REMARK   31  A    between atoms: _78  and  _81
REMARK   32  A    between atoms: _81  and  _82
REMARK   33  A    between atoms: _88  and  _90
REMARK   34  A    between atoms: _90  and  _91
REMARK   35  A    between atoms: _90  and  _93
REMARK   36  A    between atoms: _93  and  _94
REMARK   37  A    between atoms: _96  and  _98
REMARK   38  A    between atoms: _98  and  _99
REMARK   39  A    between atoms: _98  and  _101
REMARK   40  A    between atoms: _101  and  _102
REMARK   41  A    between atoms: _102  and  _103
REMARK   42  A    between atoms: _106  and  _108
REMARK   43  A    between atoms: _108  and  _109
REMARK   44  A    between atoms: _108  and  _111
REMARK   45  A    between atoms: _111  and  _112
REMARK   46  A    between atoms: _115  and  _117
REMARK   47  A    between atoms: _117  and  _118
REMARK   48  A    between atoms: _121  and  _123
REMARK   49  A    between atoms: _123  and  _124
REMARK   50  A    between atoms: _123  and  _126
REMARK   51  A    between atoms: _126  and  _127
REMARK   52  A    between atoms: _130  and  _132
REMARK   53  A    between atoms: _132  and  _133
REMARK   54  A    between atoms: _132  and  _135
REMARK   55  A    between atoms: _135  and  _136
REMARK   56  A    between atoms: _136  and  _137
REMARK   57  A    between atoms: _137  and  _138
REMARK   58  A    between atoms: _138  and  _139
REMARK   59  A    between atoms: _143  and  _145
REMARK   60  A    between atoms: _145  and  _146
REMARK   61  A    between atoms: _145  and  _148
REMARK   62  A    between atoms: _150  and  _152
REMARK   63  A    between atoms: _152  and  _153
REMARK   64  A    between atoms: _152  and  _155
REMARK   65  A    between atoms: _155  and  _156
REMARK   66  A    between atoms: _159  and  _161
REMARK   67  A    between atoms: _161  and  _162
REMARK   68  A    between atoms: _161  and  _164
REMARK   69  A    between atoms: _164  and  _165
REMARK   70  A    between atoms: _165  and  _166
REMARK   71  A    between atoms: _166  and  _167
REMARK   72  A    between atoms: _167  and  _168
REMARK   73  A    between atoms: _172  and  _174
REMARK   74  A    between atoms: _174  and  _175
REMARK   75  A    between atoms: _174  and  _177
REMARK   76  A    between atoms: _177  and  _178
REMARK   77  A    between atoms: _181  and  _183
REMARK   78  A    between atoms: _183  and  _184
REMARK   79  A    between atoms: _183  and  _186
REMARK   80  A    between atoms: _188  and  _190
REMARK   81  A    between atoms: _190  and  _191
REMARK   82  A    between atoms: _190  and  _193
REMARK   83  A    between atoms: _193  and  _194
REMARK   84  A    between atoms: _197  and  _199
REMARK   85  A    between atoms: _199  and  _200
REMARK   86  A    between atoms: _199  and  _202
REMARK   87  A    between atoms: _202  and  _203
REMARK   88  A    between atoms: _206  and  _208
REMARK   89  A    between atoms: _208  and  _209
REMARK   90  A    between atoms: _208  and  _211
REMARK   91  A    between atoms: _211  and  _212
REMARK   92  A    between atoms: _215  and  _217
REMARK   93  A    between atoms: _217  and  _218
REMARK   94  A    between atoms: _217  and  _220
REMARK   95  A    between atoms: _220  and  _221
REMARK   96  A    between atoms: _224  and  _226
REMARK   97  A    between atoms: _226  and  _227
REMARK   98  A    between atoms: _226  and  _229
REMARK   99  A    between atoms: _229  and  _230
REMARK  100  A    between atoms: _230  and  _231
REMARK  101  A    between atoms: _233  and  _235
REMARK  102  A    between atoms: _235  and  _236
REMARK  103  A    between atoms: _235  and  _238
REMARK  104  A    between atoms: _238  and  _239
REMARK  105  A    between atoms: _242  and  _244
REMARK  106  A    between atoms: _244  and  _245
REMARK  107  A    between atoms: _244  and  _247
REMARK  108  A    between atoms: _247  and  _248
REMARK  109  A    between atoms: _248  and  _249
REMARK  110  A    between atoms: _249  and  _250
REMARK  111  A    between atoms: _259  and  _261
REMARK  112  A    between atoms: _261  and  _262
REMARK  113  A    between atoms: _261  and  _264
REMARK  114  A    between atoms: _264  and  _265
REMARK  115  A    between atoms: _268  and  _270
REMARK  116  A    between atoms: _270  and  _271
REMARK  117  A    between atoms: _270  and  _273
REMARK  118  A    between atoms: _275  and  _277
REMARK  119  A    between atoms: _277  and  _278
REMARK  120  A    between atoms: _277  and  _280
REMARK  121  A    between atoms: _280  and  _281
REMARK  122  A    between atoms: _284  and  _286
REMARK  123  A    between atoms: _286  and  _287
REMARK  124  A    between atoms: _286  and  _289
REMARK  125  A    between atoms: _289  and  _290
REMARK  126  A    between atoms: _290  and  _291
REMARK  127  A    between atoms: _291  and  _292
REMARK  128  A    between atoms: _301  and  _303
REMARK  129  A    between atoms: _303  and  _304
REMARK  130  A    between atoms: _303  and  _306
REMARK  131  A    between atoms: _306  and  _307
REMARK  132  A    between atoms: _307  and  _308
REMARK  133  A    between atoms: _310  and  _312
REMARK  134  A    between atoms: _312  and  _313
REMARK  135  A    between atoms: _312  and  _315
REMARK  136  A    between atoms: _315  and  _316
REMARK  137  A    between atoms: _319  and  _321
REMARK  138  A    between atoms: _321  and  _322
REMARK  139  A    between atoms: _321  and  _324
REMARK  140  A    between atoms: _324  and  _325
REMARK  141  A    between atoms: _331  and  _333
REMARK  142  A    between atoms: _333  and  _334
REMARK  143  A    between atoms: _333  and  _336
REMARK  144  A    between atoms: _336  and  _337
REMARK  145  A    between atoms: _339  and  _341
REMARK  146  A    between atoms: _341  and  _342
REMARK  147  A    between atoms: _341  and  _344
REMARK  148  A    between atoms: _344  and  _345
REMARK  149  A    between atoms: _348  and  _350
REMARK  150  A    between atoms: _350  and  _351
REMARK  151  A    between atoms: _353  and  _355
REMARK  152  A    between atoms: _355  and  _356
REMARK  153  A    between atoms: _355  and  _358
REMARK  154  A    between atoms: _358  and  _359
REMARK  155  A    between atoms: _362  and  _364
REMARK  156  A    between atoms: _364  and  _365
REMARK  157  A    between atoms: _364  and  _367
REMARK  158  A    between atoms: _367  and  _368
REMARK  159  A    between atoms: _368  and  _369
REMARK  160  A    between atoms: _371  and  _373
REMARK  161  A    between atoms: _373  and  _374
REMARK  162  A    between atoms: _373  and  _376
REMARK  163  A    between atoms: _376  and  _377
REMARK  164  A    between atoms: _382  and  _384
REMARK  165  A    between atoms: _384  and  _385
REMARK  166  A    between atoms: _388  and  _390
REMARK  167  A    between atoms: _390  and  _391
REMARK  168  A    between atoms: _393  and  _395
REMARK  169  A    between atoms: _395  and  _396
REMARK  170  A    between atoms: _395  and  _398
REMARK  171  A    between atoms: _398  and  _399
REMARK  172  A    between atoms: _405  and  _407
REMARK  173  A    between atoms: _407  and  _408
REMARK  174  A    between atoms: _410  and  _412
REMARK  175  A    between atoms: _412  and  _413
REMARK  176  A    between atoms: _412  and  _415
REMARK  177  A    between atoms: _415  and  _416
REMARK  178  A    between atoms: _419  and  _421
REMARK  179  A    between atoms: _421  and  _422
REMARK  180  A    between atoms: _421  and  _424
REMARK  181  A    between atoms: _424  and  _425
REMARK  182  A    between atoms: _428  and  _430
REMARK  183  A    between atoms: _430  and  _431
REMARK  184  A    between atoms: _430  and  _433
REMARK  185  A    between atoms: _436  and  _438
REMARK  186  A    between atoms: _438  and  _439
REMARK  187  A    between atoms: _438  and  _441
REMARK  188  A    between atoms: _441  and  _442
REMARK  189  A    between atoms: _445  and  _447
REMARK  190  A    between atoms: _447  and  _448
REMARK  191  A    between atoms: _447  and  _450
REMARK  192  A    between atoms: _450  and  _451
REMARK  193  A    between atoms: _453  and  _455
REMARK  194  A    between atoms: _455  and  _456
REMARK  195  A    between atoms: _455  and  _458
REMARK  196  A    between atoms: _458  and  _459
REMARK  197  A    between atoms: _459  and  _460
REMARK  198  A    between atoms: _460  and  _461
REMARK  199  A    between atoms: _461  and  _462
REMARK  200  A    between atoms: _466  and  _468
REMARK  201  A    between atoms: _468  and  _469
REMARK  202  A    between atoms: _471  and  _473
REMARK  203  A    between atoms: _473  and  _474
REMARK  204  A    between atoms: _477  and  _479
REMARK  205  A    between atoms: _479  and  _480
REMARK  206  A    between atoms: _479  and  _482
REMARK  207  A    between atoms: _482  and  _483
REMARK  208  A    between atoms: _483  and  _484
REMARK  209  A    between atoms: _487  and  _489
REMARK  210  A    between atoms: _489  and  _490
REMARK  211  A    between atoms: _489  and  _492
REMARK  212  A    between atoms: _492  and  _493
REMARK  213  A    between atoms: _493  and  _494
REMARK  214  A    between atoms: _494  and  _495
REMARK  215  A    between atoms: _504  and  _506
REMARK  216  A    between atoms: _506  and  _507
REMARK  217  A    between atoms: _510  and  _512
REMARK  218  A    between atoms: _512  and  _513
REMARK  219  A    between atoms: _512  and  _515
REMARK  220  A    between atoms: _515  and  _516
REMARK  221  A    between atoms: _519  and  _521
REMARK  222  A    between atoms: _521  and  _522
REMARK  223  A    between atoms: _521  and  _524
REMARK  224  A    between atoms: _524  and  _525
REMARK  225  A    between atoms: _528  and  _530
REMARK  226  A    between atoms: _530  and  _531
REMARK  227  A    between atoms: _530  and  _533
REMARK  228  A    between atoms: _533  and  _534
REMARK  229  A    between atoms: _537  and  _539
REMARK  230  A    between atoms: _539  and  _540
REMARK  231  A    between atoms: _539  and  _542
REMARK  232  A    between atoms: _542  and  _543
REMARK  233  A    between atoms: _543  and  _544
REMARK  234  A    between atoms: _544  and  _545
REMARK  235  A    between atoms: _545  and  _546
REMARK  236  A    between atoms: _550  and  _552
REMARK  237  A    between atoms: _552  and  _553
REMARK  238  A    between atoms: _552  and  _555
REMARK  239  A    between atoms: _555  and  _556
REMARK  240  A    between atoms: _559  and  _561
REMARK  241  A    between atoms: _561  and  _562
REMARK  242  A    between atoms: _561  and  _564
REMARK  243  A    between atoms: _564  and  _565
REMARK  244  A    between atoms: _565  and  _566
REMARK  245  A    between atoms: _569  and  _570
REMARK  246  A    between atoms: _575  and  _577
REMARK  247  A    between atoms: _577  and  _578
REMARK  248  A    between atoms: _577  and  _580
REMARK  249  A    between atoms: _580  and  _581
REMARK  250  A    between atoms: _584  and  _586
REMARK  251  A    between atoms: _586  and  _587
REMARK  252  A    between atoms: _586  and  _589
REMARK  253  A    between atoms: _589  and  _590
REMARK  254  A    between atoms: _590  and  _591
REMARK  255  A    between atoms: _591  and  _592
REMARK  256  A    between atoms: _601  and  _603
REMARK  257  A    between atoms: _603  and  _604
REMARK  258  A    between atoms: _603  and  _606
REMARK  259  A    between atoms: _606  and  _607
REMARK  260  A    between atoms: _607  and  _608
REMARK  261  A    between atoms: _610  and  _612
REMARK  262  A    between atoms: _612  and  _613
REMARK  263  A    between atoms: _612  and  _615
REMARK  264  A    between atoms: _615  and  _616
REMARK                            x       y       z     vdW  Elec       q    Type
REMARK                         _______ _______ _______ _____ _____    ______ ____
ROOT
ATOM      1  C   PHE A   3      30.730  19.237  86.941  0.00  0.00    +0.241 C 
ATOM      2  N   SER A   4      31.586  19.821  87.785  0.00  0.00    -0.295 N 
ATOM      3  H   SER A   4      32.604  19.829  87.572  0.00  0.00    +0.150 HD
ATOM      4  O   PHE A   3      29.511  19.373  87.040  0.00  0.00    -0.273 OA
ENDROOT
BRANCH   2   5
ATOM      5  CA  SER A   4      31.087  20.450  89.011  0.00  0.00    +0.178 C 
BRANCH   5   6
ATOM      6  C   SER A   4      30.372  21.769  88.797  0.00  0.00    +0.243 C 
ATOM      7  O   SER A   4      29.714  22.245  89.731  0.00  0.00    -0.273 OA
ATOM      8  N   ASP A   5      30.485  22.334  87.600  0.00  0.00    -0.296 N 
ATOM      9  H   ASP A   5      31.169  21.967  86.908  0.00  0.00    +0.150 HD
BRANCH   8  10
ATOM     10  CA  ASP A   5      29.637  23.477  87.266  0.00  0.00    +0.160 C 
BRANCH  10  11
ATOM     11  C   ASP A   5      28.331  23.096  86.572  0.00  0.00    +0.241 C 
ATOM     12  N   GLY A   6      28.060  21.804  86.479  0.00  0.00    -0.295 N 
ATOM     13  H   GLY A   6      28.702  21.119  86.926  0.00  0.00    +0.150 HD
ATOM     14  O   ASP A   5      27.578  23.989  86.147  0.00  0.00    -0.273 OA
BRANCH  12  15
ATOM     15  CA  GLY A   6      26.884  21.314  85.766  0.00  0.00    +0.176 C 
BRANCH  15  16
ATOM     16  C   GLY A   6      27.102  20.945  84.325  0.00  0.00    +0.243 C 
ATOM     17  N   LEU A   7      28.258  21.297  83.755  0.00  0.00    -0.298 N 
ATOM     18  H   LEU A   7      28.983  21.796  84.308  0.00  0.00    +0.150 HD
ATOM     19  O   GLY A   6      26.215  20.336  83.703  0.00  0.00    -0.273 OA
BRANCH  17  20
ATOM     20  CA  LEU A   7      28.496  20.977  82.354  0.00  0.00    +0.137 C 
BRANCH  20  21
ATOM     21  C   LEU A   7      28.359  19.475  82.166  0.00  0.00    +0.227 C 
ATOM     22  O   LEU A   7      28.986  18.666  82.853  0.00  0.00    -0.286 OA
ENDBRANCH  20  21
BRANCH  20  23
ATOM     23  CB  LEU A   7      29.882  21.425  81.895  0.00  0.00    +0.028 C 
BRANCH  23  24
ATOM     24  CG  LEU A   7      30.229  21.073  80.438  0.00  0.00    +0.002 C 
ATOM     25  CD2 LEU A   7      31.719  21.305  80.247  0.00  0.00    +0.000 C 
ATOM     26  CD1 LEU A   7      29.364  21.838  79.446  0.00  0.00    +0.000 C 
ENDBRANCH  23  24
ENDBRANCH  20  23
ENDBRANCH  17  20
ENDBRANCH  15  16
ENDBRANCH  12  15
ENDBRANCH  10  11
BRANCH  10  27
ATOM     27  CB  ASP A   5      30.391  24.468  86.373  0.00  0.00    +0.143 C 
BRANCH  27  28
ATOM     28  CG  ASP A   5      30.610  23.954  84.970  0.00  0.00    +0.367 C 
ATOM     29  OD2 ASP A   5      30.571  22.726  84.845  0.00  0.00    -0.246 OA
ATOM     30  OD1 ASP A   5      30.818  24.811  84.062  0.00  0.00    -0.246 OA
ENDBRANCH  27  28
ENDBRANCH  10  27
ENDBRANCH   8  10
ENDBRANCH   5   6
BRANCH   5  31
ATOM     31  CB  SER A   4      32.256  20.612  89.985  0.00  0.00    +0.166 C 
BRANCH  31  32
ATOM     32  OG  SER A   4      32.576  19.345  90.567  0.00  0.00    -0.380 OA
ATOM     33  H   SER A   4      32.829  18.709  89.852  0.00  0.00    +0.211 HD
ENDBRANCH  31  32
ENDBRANCH   5  31
ENDBRANCH   2   5
BRANCH   1  34
ATOM     34  CA  PHE A   3      31.342  18.383  85.855  0.00  0.00    +0.153 C 
BRANCH  34  37
ATOM     35  C   THR A   2      29.835  16.450  85.425  0.00  0.00    +0.243 C 
ATOM     36  O   THR A   2      30.229  15.801  86.391  0.00  0.00    -0.273 OA
ATOM     37  N   PHE A   3      30.306  17.667  85.118  0.00  0.00    -0.297 N 
ATOM     38  H   PHE A   3      29.899  18.140  84.286  0.00  0.00    +0.150 HD
BRANCH  35  39
ATOM     39  CA  THR A   2      28.751  15.929  84.505  0.00  0.00    +0.176 C 
BRANCH  39  41
ATOM     40  C   MET A   1      29.160  14.243  82.760  0.00  0.00    +0.238 C 
ATOM     41  N   THR A   2      29.022  14.588  84.035  0.00  0.00    -0.295 N 
ATOM     42  H   THR A   2      29.116  13.838  84.749  0.00  0.00    +0.150 HD
ATOM     43  O   MET A   1      29.140  15.083  81.868  0.00  0.00    -0.274 OA
BRANCH  40  44
ATOM     44  CA  MET A   1      29.366  12.757  82.460  0.00  0.00    +0.146 C 
BRANCH  44  45
ATOM     45  N   MET A   1      28.746  12.465  81.171  0.00  0.00    -0.238 NA
ATOM     46  H   MET A   1      29.044  12.999  80.330  0.00  0.00    +0.142 HD
ENDBRANCH  44  45
BRANCH  44  47
ATOM     47  CB  MET A   1      30.832  12.371  82.438  0.00  0.00    +0.038 C 
BRANCH  47  48
ATOM     48  CG  MET A   1      31.021  10.831  82.344  0.00  0.00    +0.060 C 
BRANCH  48  49
ATOM     49  SD  MET A   1      32.749  10.328  82.341  0.00  0.00    -0.139 S 
ATOM     50  CE  MET A   1      32.495   8.564  82.224  0.00  0.00    +0.069 C 
ENDBRANCH  48  49
ENDBRANCH  47  48
ENDBRANCH  44  47
ENDBRANCH  40  44
ENDBRANCH  39  41
BRANCH  39  51
ATOM     51  CB  THR A   2      27.402  15.911  85.236  0.00  0.00    +0.137 C 
ATOM     52  CG2 THR A   2      27.093  17.293  85.782  0.00  0.00    +0.034 C 
BRANCH  51  53
ATOM     53  OG1 THR A   2      26.371  15.533  84.278  0.00  0.00    -0.382 OA
ATOM     54  HG1 THR A   2      26.574  14.635  83.914  0.00  0.00    +0.210 HD
ENDBRANCH  51  53
ENDBRANCH  39  51
ENDBRANCH  35  39
ENDBRANCH  34  37
BRANCH  34  55
ATOM     55  CB  PHE A   3      32.174  19.219  84.874  0.00  0.00    +0.055 C 
BRANCH  55  56
ATOM     56  CG  PHE A   3      32.834  18.384  83.790  0.00  0.00    -0.020 A 
ATOM     57  CD2 PHE A   3      34.147  17.986  84.000  0.00  0.00    -0.004 A 
ATOM     58  CE2 PHE A   3      34.818  17.198  83.059  0.00  0.00    -0.000 A 
ATOM     59  CZ  PHE A   3      34.144  16.795  81.912  0.00  0.00    -0.000 A 
ATOM     60  CE1 PHE A   3      32.836  17.164  81.726  0.00  0.00    -0.000 A 
ATOM     61  CD1 PHE A   3      32.179  17.984  82.659  0.00  0.00    -0.004 A 
ENDBRANCH  55  56
ENDBRANCH  34  55
ENDBRANCH   1  34
TORSDOF 27
REMARK  Name = ../refined-set-2016/1fcx/1fcx_pocket.pdb
REMARK  264 active torsions:
REMARK  status: ('A' for Active; 'I' for Inactive)
REMARK    1  A    between atoms: _1  and  _3
REMARK    2  A    between atoms: _3  and  _4
REMARK    3  A    between atoms: _3  and  _6
REMARK    4  A    between atoms: _6  and  _7
REMARK    5  A    between atoms: _10  and  _12
REMARK    6  A    between atoms: _12  and  _13
REMARK    7  A    between atoms: _12  and  _15
REMARK    8  A    between atoms: _15  and  _16
REMARK    9  A    between atoms: _23  and  _24
REMARK   10  A    between atoms: _29  and  _31
REMARK   11  A    between atoms: _31  and  _32
REMARK   12  A    between atoms: _31  and  _34
REMARK   13  A    between atoms: _34  and  _35
REMARK   14  A    between atoms: _38  and  _40
REMARK   15  A    between atoms: _40  and  _41
REMARK   16  A    between atoms: _40  and  _43
REMARK   17  A    between atoms: _43  and  _44
REMARK   18  A    between atoms: _47  and  _49
REMARK   19  A    between atoms: _49  and  _50
REMARK   20  A    between atoms: _49  and  _52
REMARK   21  A    between atoms: _52  and  _53
REMARK   22  A    between atoms: _63  and  _65
REMARK   23  A    between atoms: _65  and  _66
REMARK   24  A    between atoms: _65  and  _68
REMARK   25  A    between atoms: _68  and  _69
REMARK   26  A    between atoms: _69  and  _70
REMARK   27  A    between atoms: _70  and  _71
REMARK   28  A    between atoms: _71  and  _72
REMARK   29  A    between atoms: _76  and  _78
REMARK   30  A    between atoms: _78  and  _79
REMARK   31  A    between atoms: _78  and  _81
REMARK   32  A    between atoms: _81  and  _82
REMARK   33  A    between atoms: _88  and  _90
REMARK   34  A    between atoms: _90  and  _91
REMARK   35  A    between atoms: _90  and  _93
REMARK   36  A    between atoms: _93  and  _94
REMARK   37  A    between atoms: _96  and  _98
REMARK   38  A    between atoms: _98  and  _99
REMARK   39  A    between atoms: _98  and  _101
REMARK   40  A    between atoms: _101  and  _102
REMARK   41  A    between atoms: _102  and  _103
REMARK   42  A    between atoms: _106  and  _108
REMARK   43  A    between atoms: _108  and  _109
REMARK   44  A    between atoms: _108  and  _111
REMARK   45  A    between atoms: _111  and  _112
REMARK   46  A    between atoms: _115  and  _117
REMARK   47  A    between atoms: _117  and  _118
REMARK   48  A    between atoms: _121  and  _123
REMARK   49  A    between atoms: _123  and  _124
REMARK   50  A    between atoms: _123  and  _126
REMARK   51  A    between atoms: _126  and  _127
REMARK   52  A    between atoms: _130  and  _132
REMARK   53  A    between atoms: _132  and  _133
REMARK   54  A    between atoms: _132  and  _135
REMARK   55  A    between atoms: _135  and  _136
REMARK   56  A    between atoms: _136  and  _137
REMARK   57  A    between atoms: _137  and  _138
REMARK   58  A    between atoms: _138  and  _139
REMARK   59  A    between atoms: _143  and  _145
REMARK   60  A    between atoms: _145  and  _146
REMARK   61  A    between atoms: _145  and  _148
REMARK   62  A    between atoms: _150  and  _152
REMARK   63  A    between atoms: _152  and  _153
REMARK   64  A    between atoms: _152  and  _155
REMARK   65  A    between atoms: _155  and  _156
REMARK   66  A    between atoms: _159  and  _161
REMARK   67  A    between atoms: _161  and  _162
REMARK   68  A    between atoms: _161  and  _164
REMARK   69  A    between atoms: _164  and  _165
REMARK   70  A    between atoms: _165  and  _166
REMARK   71  A    between atoms: _166  and  _167
REMARK   72  A    between atoms: _167  and  _168
REMARK   73  A    between atoms: _172  and  _174
REMARK   74  A    between atoms: _174  and  _175
REMARK   75  A    between atoms: _174  and  _177
REMARK   76  A    between atoms: _177  and  _178
REMARK   77  A    between atoms: _181  and  _183
REMARK   78  A    between atoms: _183  and  _184
REMARK   79  A    between atoms: _183  and  _186
REMARK   80  A    between atoms: _188  and  _190
REMARK   81  A    between atoms: _190  and  _191
REMARK   82  A    between atoms: _190  and  _193
REMARK   83  A    between atoms: _193  and  _194
REMARK   84  A    between atoms: _197  and  _199
REMARK   85  A    between atoms: _199  and  _200
REMARK   86  A    between atoms: _199  and  _202
REMARK   87  A    between atoms: _202  and  _203
REMARK   88  A    between atoms: _206  and  _208
REMARK   89  A    between atoms: _208  and  _209
REMARK   90  A    between atoms: _208  and  _211
REMARK   91  A    between atoms: _211  and  _212
REMARK   92  A    between atoms: _215  and  _217
REMARK   93  A    between atoms: _217  and  _218
REMARK   94  A    between atoms: _217  and  _220
REMARK   95  A    between atoms: _220  and  _221
REMARK   96  A    between atoms: _224  and  _226
REMARK   97  A    between atoms: _226  and  _227
REMARK   98  A    between atoms: _226  and  _229
REMARK   99  A    between atoms: _229  and  _230
REMARK  100  A    between atoms: _230  and  _231
REMARK  101  A    between atoms: _233  and  _235
REMARK  102  A    between atoms: _235  and  _236
REMARK  103  A    between atoms: _235  and  _238
REMARK  104  A    between atoms: _238  and  _239
REMARK  105  A    between atoms: _242  and  _244
REMARK  106  A    between atoms: _244  and  _245
REMARK  107  A    between atoms: _244  and  _247
REMARK  108  A    between atoms: _247  and  _248
REMARK  109  A    between atoms: _248  and  _249
REMARK  110  A    between atoms: _249  and  _250
REMARK  111  A    between atoms: _259  and  _261
REMARK  112  A    between atoms: _261  and  _262
REMARK  113  A    between atoms: _261  and  _264
REMARK  114  A    between atoms: _264  and  _265
REMARK  115  A    between atoms: _268  and  _270
REMARK  116  A    between atoms: _270  and  _271
REMARK  117  A    between atoms: _270  and  _273
REMARK  118  A    between atoms: _275  and  _277
REMARK  119  A    between atoms: _277  and  _278
REMARK  120  A    between atoms: _277  and  _280
REMARK  121  A    between atoms: _280  and  _281
REMARK  122  A    between atoms: _284  and  _286
REMARK  123  A    between atoms: _286  and  _287
REMARK  124  A    between atoms: _286  and  _289
REMARK  125  A    between atoms: _289  and  _290
REMARK  126  A    between atoms: _290  and  _291
REMARK  127  A    between atoms: _291  and  _292
REMARK  128  A    between atoms: _301  and  _303
REMARK  129  A    between atoms: _303  and  _304
REMARK  130  A    between atoms: _303  and  _306
REMARK  131  A    between atoms: _306  and  _307
REMARK  132  A    between atoms: _307  and  _308
REMARK  133  A    between atoms: _310  and  _312
REMARK  134  A    between atoms: _312  and  _313
REMARK  135  A    between atoms: _312  and  _315
REMARK  136  A    between atoms: _315  and  _316
REMARK  137  A    between atoms: _319  and  _321
REMARK  138  A    between atoms: _321  and  _322
REMARK  139  A    between atoms: _321  and  _324
REMARK  140  A    between atoms: _324  and  _325
REMARK  141  A    between atoms: _331  and  _333
REMARK  142  A    between atoms: _333  and  _334
REMARK  143  A    between atoms: _333  and  _336
REMARK  144  A    between atoms: _336  and  _337
REMARK  145  A    between atoms: _339  and  _341
REMARK  146  A    between atoms: _341  and  _342
REMARK  147  A    between atoms: _341  and  _344
REMARK  148  A    between atoms: _344  and  _345
REMARK  149  A    between atoms: _348  and  _350
REMARK  150  A    between atoms: _350  and  _351
REMARK  151  A    between atoms: _353  and  _355
REMARK  152  A    between atoms: _355  and  _356
REMARK  153  A    between atoms: _355  and  _358
REMARK  154  A    between atoms: _358  and  _359
REMARK  155  A    between atoms: _362  and  _364
REMARK  156  A    between atoms: _364  and  _365
REMARK  157  A    between atoms: _364  and  _367
REMARK  158  A    between atoms: _367  and  _368
REMARK  159  A    between atoms: _368  and  _369
REMARK  160  A    between atoms: _371  and  _373
REMARK  161  A    between atoms: _373  and  _374
REMARK  162  A    between atoms: _373  and  _376
REMARK  163  A    between atoms: _376  and  _377
REMARK  164  A    between atoms: _382  and  _384
REMARK  165  A    between atoms: _384  and  _385
REMARK  166  A    between atoms: _388  and  _390
REMARK  167  A    between atoms: _390  and  _391
REMARK  168  A    between atoms: _393  and  _395
REMARK  169  A    between atoms: _395  and  _396
REMARK  170  A    between atoms: _395  and  _398
REMARK  171  A    between atoms: _398  and  _399
REMARK  172  A    between atoms: _405  and  _407
REMARK  173  A    between atoms: _407  and  _408
REMARK  174  A    between atoms: _410  and  _412
REMARK  175  A    between atoms: _412  and  _413
REMARK  176  A    between atoms: _412  and  _415
REMARK  177  A    between atoms: _415  and  _416
REMARK  178  A    between atoms: _419  and  _421
REMARK  179  A    between atoms: _421  and  _422
REMARK  180  A    between atoms: _421  and  _424
REMARK  181  A    between atoms: _424  and  _425
REMARK  182  A    between atoms: _428  and  _430
REMARK  183  A    between atoms: _430  and  _431
REMARK  184  A    between atoms: _430  and  _433
REMARK  185  A    between atoms: _436  and  _438
REMARK  186  A    between atoms: _438  and  _439
REMARK  187  A    between atoms: _438  and  _441
REMARK  188  A    between atoms: _441  and  _442
REMARK  189  A    between atoms: _445  and  _447
REMARK  190  A    between atoms: _447  and  _448
REMARK  191  A    between atoms: _447  and  _450
REMARK  192  A    between atoms: _450  and  _451
REMARK  193  A    between atoms: _453  and  _455
REMARK  194  A    between atoms: _455  and  _456
REMARK  195  A    between atoms: _455  and  _458
REMARK  196  A    between atoms: _458  and  _459
REMARK  197  A    between atoms: _459  and  _460
REMARK  198  A    between atoms: _460  and  _461
REMARK  199  A    between atoms: _461  and  _462
REMARK  200  A    between atoms: _466  and  _468
REMARK  201  A    between atoms: _468  and  _469
REMARK  202  A    between atoms: _471  and  _473
REMARK  203  A    between atoms: _473  and  _474
REMARK  204  A    between atoms: _477  and  _479
REMARK  205  A    between atoms: _479  and  _480
REMARK  206  A    between atoms: _479  and  _482
REMARK  207  A    between atoms: _482  and  _483
REMARK  208  A    between atoms: _483  and  _484
REMARK  209  A    between atoms: _487  and  _489
REMARK  210  A    between atoms: _489  and  _490
REMARK  211  A    between atoms: _489  and  _492
REMARK  212  A    between atoms: _492  and  _493
REMARK  213  A    between atoms: _493  and  _494
REMARK  214  A    between atoms: _494  and  _495
REMARK  215  A    between atoms: _504  and  _506
REMARK  216  A    between atoms: _506  and  _507
REMARK  217  A    between atoms: _510  and  _512
REMARK  218  A    between atoms: _512  and  _513
REMARK  219  A    between atoms: _512  and  _515
REMARK  220  A    between atoms: _515  and  _516
REMARK  221  A    between atoms: _519  and  _521
REMARK  222  A    between atoms: _521  and  _522
REMARK  223  A    between atoms: _521  and  _524
REMARK  224  A    between atoms: _524  and  _525
REMARK  225  A    between atoms: _528  and  _530
REMARK  226  A    between atoms: _530  and  _531
REMARK  227  A    between atoms: _530  and  _533
REMARK  228  A    between atoms: _533  and  _534
REMARK  229  A    between atoms: _537  and  _539
REMARK  230  A    between atoms: _539  and  _540
REMARK  231  A    between atoms: _539  and  _542
REMARK  232  A    between atoms: _542  and  _543
REMARK  233  A    between atoms: _543  and  _544
REMARK  234  A    between atoms: _544  and  _545
REMARK  235  A    between atoms: _545  and  _546
REMARK  236  A    between atoms: _550  and  _552
REMARK  237  A    between atoms: _552  and  _553
REMARK  238  A    between atoms: _552  and  _555
REMARK  239  A    between atoms: _555  and  _556
REMARK  240  A    between atoms: _559  and  _561
REMARK  241  A    between atoms: _561  and  _562
REMARK  242  A    between atoms: _561  and  _564
REMARK  243  A    between atoms: _564  and  _565
REMARK  244  A    between atoms: _565  and  _566
REMARK  245  A    between atoms: _569  and  _570
REMARK  246  A    between atoms: _575  and  _577
REMARK  247  A    between atoms: _577  and  _578
REMARK  248  A    between atoms: _577  and  _580
REMARK  249  A    between atoms: _580  and  _581
REMARK  250  A    between atoms: _584  and  _586
REMARK  251  A    between atoms: _586  and  _587
REMARK  252  A    between atoms: _586  and  _589
REMARK  253  A    between atoms: _589  and  _590
REMARK  254  A    between atoms: _590  and  _591
REMARK  255  A    between atoms: _591  and  _592
REMARK  256  A    between atoms: _601  and  _603
REMARK  257  A    between atoms: _603  and  _604
REMARK  258  A    between atoms: _603  and  _606
REMARK  259  A    between atoms: _606  and  _607
REMARK  260  A    between atoms: _607  and  _608
REMARK  261  A    between atoms: _610  and  _612
REMARK  262  A    between atoms: _612  and  _613
REMARK  263  A    between atoms: _612  and  _615
REMARK  264  A    between atoms: _615  and  _616
REMARK                            x       y       z     vdW  Elec       q    Type
REMARK                         _______ _______ _______ _____ _____    ______ ____
ROOT
ATOM      1  C   MET A   1      35.543  13.248  75.575  0.00  0.00    +0.238 C 
ATOM      2  O   MET A   1      36.665  13.609  75.928  0.00  0.00    -0.274 OA
ATOM      3  N   HIS A   2      35.314  12.485  74.509  0.00  0.00    -0.298 N 
ATOM      4  H   HIS A   2      34.356  12.133  74.308  0.00  0.00    +0.150 HD
ENDROOT
BRANCH   1   5
ATOM      5  CA  MET A   1      34.336  13.646  76.390  0.00  0.00    +0.146 C 
BRANCH   5   6
ATOM      6  N   MET A   1      33.231  14.055  75.485  0.00  0.00    -0.238 NA
ATOM      7  H   MET A   1      32.318  13.558  75.523  0.00  0.00    +0.142 HD
ENDBRANCH   5   6
BRANCH   5   8
ATOM      8  CB  MET A   1      33.890  12.528  77.338  0.00  0.00    +0.038 C 
BRANCH   8   9
ATOM      9  CG  MET A   1      32.855  12.894  78.375  0.00  0.00    +0.060 C 
BRANCH   9  10
ATOM     10  SD  MET A   1      33.335  14.135  79.588  0.00  0.00    -0.139 S 
ATOM     11  CE  MET A   1      34.456  13.167  80.553  0.00  0.00    +0.069 C 
ENDBRANCH   9  10
ENDBRANCH   8   9
ENDBRANCH   5   8
ENDBRANCH   1   5
BRANCH   3  12
ATOM     12  CA  HIS A   2      36.428  12.150  73.626  0.00  0.00    +0.143 C 
BRANCH  12  13
ATOM     13  C   HIS A   2      37.100  13.401  73.085  0.00  0.00    +0.227 C 
ATOM     14  O   HIS A   2      38.328  13.506  73.125  0.00  0.00    -0.286 OA
ENDBRANCH  12  13
BRANCH  12  15
ATOM     15  CB  HIS A   2      35.914  11.326  72.461  0.00  0.00    +0.075 C 
BRANCH  15  16
ATOM     16  CG  HIS A   2      36.924  10.991  71.409  0.00  0.00    +0.082 A 
ATOM     17  CD2 HIS A   2      37.633   9.879  71.179  0.00  0.00    +0.115 A 
ATOM     18  NE2 HIS A   2      38.433  10.089  70.057  0.00  0.00    -0.221 NA
ATOM     19  CE1 HIS A   2      38.202  11.318  69.636  0.00  0.00    +0.199 A 
ATOM     20  ND1 HIS A   2      37.287  11.882  70.429  0.00  0.00    -0.227 NA
ENDBRANCH  15  16
ENDBRANCH  12  15
ENDBRANCH   3  12
TORSDOF 9
REMARK  Name = ../refined-set-2016/1fcx/1fcx_pocket.pdb
REMARK  264 active torsions:
REMARK  status: ('A' for Active; 'I' for Inactive)
REMARK    1  A    between atoms: _1  and  _3
REMARK    2  A    between atoms: _3  and  _4
REMARK    3  A    between atoms: _3  and  _6
REMARK    4  A    between atoms: _6  and  _7
REMARK    5  A    between atoms: _10  and  _12
REMARK    6  A    between atoms: _12  and  _13
REMARK    7  A    between atoms: _12  and  _15
REMARK    8  A    between atoms: _15  and  _16
REMARK    9  A    between atoms: _23  and  _24
REMARK   10  A    between atoms: _29  and  _31
REMARK   11  A    between atoms: _31  and  _32
REMARK   12  A    between atoms: _31  and  _34
REMARK   13  A    between atoms: _34  and  _35
REMARK   14  A    between atoms: _38  and  _40
REMARK   15  A    between atoms: _40  and  _41
REMARK   16  A    between atoms: _40  and  _43
REMARK   17  A    between atoms: _43  and  _44
REMARK   18  A    between atoms: _47  and  _49
REMARK   19  A    between atoms: _49  and  _50
REMARK   20  A    between atoms: _49  and  _52
REMARK   21  A    between atoms: _52  and  _53
REMARK   22  A    between atoms: _63  and  _65
REMARK   23  A    between atoms: _65  and  _66
REMARK   24  A    between atoms: _65  and  _68
REMARK   25  A    between atoms: _68  and  _69
REMARK   26  A    between atoms: _69  and  _70
REMARK   27  A    between atoms: _70  and  _71
REMARK   28  A    between atoms: _71  and  _72
REMARK   29  A    between atoms: _76  and  _78
REMARK   30  A    between atoms: _78  and  _79
REMARK   31  A    between atoms: _78  and  _81
REMARK   32  A    between atoms: _81  and  _82
REMARK   33  A    between atoms: _88  and  _90
REMARK   34  A    between atoms: _90  and  _91
REMARK   35  A    between atoms: _90  and  _93
REMARK   36  A    between atoms: _93  and  _94
REMARK   37  A    between atoms: _96  and  _98
REMARK   38  A    between atoms: _98  and  _99
REMARK   39  A    between atoms: _98  and  _101
REMARK   40  A    between atoms: _101  and  _102
REMARK   41  A    between atoms: _102  and  _103
REMARK   42  A    between atoms: _106  and  _108
REMARK   43  A    between atoms: _108  and  _109
REMARK   44  A    between atoms: _108  and  _111
REMARK   45  A    between atoms: _111  and  _112
REMARK   46  A    between atoms: _115  and  _117
REMARK   47  A    between atoms: _117  and  _118
REMARK   48  A    between atoms: _121  and  _123
REMARK   49  A    between atoms: _123  and  _124
REMARK   50  A    between atoms: _123  and  _126
REMARK   51  A    between atoms: _126  and  _127
REMARK   52  A    between atoms: _130  and  _132
REMARK   53  A    between atoms: _132  and  _133
REMARK   54  A    between atoms: _132  and  _135
REMARK   55  A    between atoms: _135  and  _136
REMARK   56  A    between atoms: _136  and  _137
REMARK   57  A    between atoms: _137  and  _138
REMARK   58  A    between atoms: _138  and  _139
REMARK   59  A    between atoms: _143  and  _145
REMARK   60  A    between atoms: _145  and  _146
REMARK   61  A    between atoms: _145  and  _148
REMARK   62  A    between atoms: _150  and  _152
REMARK   63  A    between atoms: _152  and  _153
REMARK   64  A    between atoms: _152  and  _155
REMARK   65  A    between atoms: _155  and  _156
REMARK   66  A    between atoms: _159  and  _161
REMARK   67  A    between atoms: _161  and  _162
REMARK   68  A    between atoms: _161  and  _164
REMARK   69  A    between atoms: _164  and  _165
REMARK   70  A    between atoms: _165  and  _166
REMARK   71  A    between atoms: _166  and  _167
REMARK   72  A    between atoms: _167  and  _168
REMARK   73  A    between atoms: _172  and  _174
REMARK   74  A    between atoms: _174  and  _175
REMARK   75  A    between atoms: _174  and  _177
REMARK   76  A    between atoms: _177  and  _178
REMARK   77  A    between atoms: _181  and  _183
REMARK   78  A    between atoms: _183  and  _184
REMARK   79  A    between atoms: _183  and  _186
REMARK   80  A    between atoms: _188  and  _190
REMARK   81  A    between atoms: _190  and  _191
REMARK   82  A    between atoms: _190  and  _193
REMARK   83  A    between atoms: _193  and  _194
REMARK   84  A    between atoms: _197  and  _199
REMARK   85  A    between atoms: _199  and  _200
REMARK   86  A    between atoms: _199  and  _202
REMARK   87  A    between atoms: _202  and  _203
REMARK   88  A    between atoms: _206  and  _208
REMARK   89  A    between atoms: _208  and  _209
REMARK   90  A    between atoms: _208  and  _211
REMARK   91  A    between atoms: _211  and  _212
REMARK   92  A    between atoms: _215  and  _217
REMARK   93  A    between atoms: _217  and  _218
REMARK   94  A    between atoms: _217  and  _220
REMARK   95  A    between atoms: _220  and  _221
REMARK   96  A    between atoms: _224  and  _226
REMARK   97  A    between atoms: _226  and  _227
REMARK   98  A    between atoms: _226  and  _229
REMARK   99  A    between atoms: _229  and  _230
REMARK  100  A    between atoms: _230  and  _231
REMARK  101  A    between atoms: _233  and  _235
REMARK  102  A    between atoms: _235  and  _236
REMARK  103  A    between atoms: _235  and  _238
REMARK  104  A    between atoms: _238  and  _239
REMARK  105  A    between atoms: _242  and  _244
REMARK  106  A    between atoms: _244  and  _245
REMARK  107  A    between atoms: _244  and  _247
REMARK  108  A    between atoms: _247  and  _248
REMARK  109  A    between atoms: _248  and  _249
REMARK  110  A    between atoms: _249  and  _250
REMARK  111  A    between atoms: _259  and  _261
REMARK  112  A    between atoms: _261  and  _262
REMARK  113  A    between atoms: _261  and  _264
REMARK  114  A    between atoms: _264  and  _265
REMARK  115  A    between atoms: _268  and  _270
REMARK  116  A    between atoms: _270  and  _271
REMARK  117  A    between atoms: _270  and  _273
REMARK  118  A    between atoms: _275  and  _277
REMARK  119  A    between atoms: _277  and  _278
REMARK  120  A    between atoms: _277  and  _280
REMARK  121  A    between atoms: _280  and  _281
REMARK  122  A    between atoms: _284  and  _286
REMARK  123  A    between atoms: _286  and  _287
REMARK  124  A    between atoms: _286  and  _289
REMARK  125  A    between atoms: _289  and  _290
REMARK  126  A    between atoms: _290  and  _291
REMARK  127  A    between atoms: _291  and  _292
REMARK  128  A    between atoms: _301  and  _303
REMARK  129  A    between atoms: _303  and  _304
REMARK  130  A    between atoms: _303  and  _306
REMARK  131  A    between atoms: _306  and  _307
REMARK  132  A    between atoms: _307  and  _308
REMARK  133  A    between atoms: _310  and  _312
REMARK  134  A    between atoms: _312  and  _313
REMARK  135  A    between atoms: _312  and  _315
REMARK  136  A    between atoms: _315  and  _316
REMARK  137  A    between atoms: _319  and  _321
REMARK  138  A    between atoms: _321  and  _322
REMARK  139  A    between atoms: _321  and  _324
REMARK  140  A    between atoms: _324  and  _325
REMARK  141  A    between atoms: _331  and  _333
REMARK  142  A    between atoms: _333  and  _334
REMARK  143  A    between atoms: _333  and  _336
REMARK  144  A    between atoms: _336  and  _337
REMARK  145  A    between atoms: _339  and  _341
REMARK  146  A    between atoms: _341  and  _342
REMARK  147  A    between atoms: _341  and  _344
REMARK  148  A    between atoms: _344  and  _345
REMARK  149  A    between atoms: _348  and  _350
REMARK  150  A    between atoms: _350  and  _351
REMARK  151  A    between atoms: _353  and  _355
REMARK  152  A    between atoms: _355  and  _356
REMARK  153  A    between atoms: _355  and  _358
REMARK  154  A    between atoms: _358  and  _359
REMARK  155  A    between atoms: _362  and  _364
REMARK  156  A    between atoms: _364  and  _365
REMARK  157  A    between atoms: _364  and  _367
REMARK  158  A    between atoms: _367  and  _368
REMARK  159  A    between atoms: _368  and  _369
REMARK  160  A    between atoms: _371  and  _373
REMARK  161  A    between atoms: _373  and  _374
REMARK  162  A    between atoms: _373  and  _376
REMARK  163  A    between atoms: _376  and  _377
REMARK  164  A    between atoms: _382  and  _384
REMARK  165  A    between atoms: _384  and  _385
REMARK  166  A    between atoms: _388  and  _390
REMARK  167  A    between atoms: _390  and  _391
REMARK  168  A    between atoms: _393  and  _395
REMARK  169  A    between atoms: _395  and  _396
REMARK  170  A    between atoms: _395  and  _398
REMARK  171  A    between atoms: _398  and  _399
REMARK  172  A    between atoms: _405  and  _407
REMARK  173  A    between atoms: _407  and  _408
REMARK  174  A    between atoms: _410  and  _412
REMARK  175  A    between atoms: _412  and  _413
REMARK  176  A    between atoms: _412  and  _415
REMARK  177  A    between atoms: _415  and  _416
REMARK  178  A    between atoms: _419  and  _421
REMARK  179  A    between atoms: _421  and  _422
REMARK  180  A    between atoms: _421  and  _424
REMARK  181  A    between atoms: _424  and  _425
REMARK  182  A    between atoms: _428  and  _430
REMARK  183  A    between atoms: _430  and  _431
REMARK  184  A    between atoms: _430  and  _433
REMARK  185  A    between atoms: _436  and  _438
REMARK  186  A    between atoms: _438  and  _439
REMARK  187  A    between atoms: _438  and  _441
REMARK  188  A    between atoms: _441  and  _442
REMARK  189  A    between atoms: _445  and  _447
REMARK  190  A    between atoms: _447  and  _448
REMARK  191  A    between atoms: _447  and  _450
REMARK  192  A    between atoms: _450  and  _451
REMARK  193  A    between atoms: _453  and  _455
REMARK  194  A    between atoms: _455  and  _456
REMARK  195  A    between atoms: _455  and  _458
REMARK  196  A    between atoms: _458  and  _459
REMARK  197  A    between atoms: _459  and  _460
REMARK  198  A    between atoms: _460  and  _461
REMARK  199  A    between atoms: _461  and  _462
REMARK  200  A    between atoms: _466  and  _468
REMARK  201  A    between atoms: _468  and  _469
REMARK  202  A    between atoms: _471  and  _473
REMARK  203  A    between atoms: _473  and  _474
REMARK  204  A    between atoms: _477  and  _479
REMARK  205  A    between atoms: _479  and  _480
REMARK  206  A    between atoms: _479  and  _482
REMARK  207  A    between atoms: _482  and  _483
REMARK  208  A    between atoms: _483  and  _484
REMARK  209  A    between atoms: _487  and  _489
REMARK  210  A    between atoms: _489  and  _490
REMARK  211  A    between atoms: _489  and  _492
REMARK  212  A    between atoms: _492  and  _493
REMARK  213  A    between atoms: _493  and  _494
REMARK  214  A    between atoms: _494  and  _495
REMARK  215  A    between atoms: _504  and  _506
REMARK  216  A    between atoms: _506  and  _507
REMARK  217  A    between atoms: _510  and  _512
REMARK  218  A    between atoms: _512  and  _513
REMARK  219  A    between atoms: _512  and  _515
REMARK  220  A    between atoms: _515  and  _516
REMARK  221  A    between atoms: _519  and  _521
REMARK  222  A    between atoms: _521  and  _522
REMARK  223  A    between atoms: _521  and  _524
REMARK  224  A    between atoms: _524  and  _525
REMARK  225  A    between atoms: _528  and  _530
REMARK  226  A    between atoms: _530  and  _531
REMARK  227  A    between atoms: _530  and  _533
REMARK  228  A    between atoms: _533  and  _534
REMARK  229  A    between atoms: _537  and  _539
REMARK  230  A    between atoms: _539  and  _540
REMARK  231  A    between atoms: _539  and  _542
REMARK  232  A    between atoms: _542  and  _543
REMARK  233  A    between atoms: _543  and  _544
REMARK  234  A    between atoms: _544  and  _545
REMARK  235  A    between atoms: _545  and  _546
REMARK  236  A    between atoms: _550  and  _552
REMARK  237  A    between atoms: _552  and  _553
REMARK  238  A    between atoms: _552  and  _555
REMARK  239  A    between atoms: _555  and  _556
REMARK  240  A    between atoms: _559  and  _561
REMARK  241  A    between atoms: _561  and  _562
REMARK  242  A    between atoms: _561  and  _564
REMARK  243  A    between atoms: _564  and  _565
REMARK  244  A    between atoms: _565  and  _566
REMARK  245  A    between atoms: _569  and  _570
REMARK  246  A    between atoms: _575  and  _577
REMARK  247  A    between atoms: _577  and  _578
REMARK  248  A    between atoms: _577  and  _580
REMARK  249  A    between atoms: _580  and  _581
REMARK  250  A    between atoms: _584  and  _586
REMARK  251  A    between atoms: _586  and  _587
REMARK  252  A    between atoms: _586  and  _589
REMARK  253  A    between atoms: _589  and  _590
REMARK  254  A    between atoms: _590  and  _591
REMARK  255  A    between atoms: _591  and  _592
REMARK  256  A    between atoms: _601  and  _603
REMARK  257  A    between atoms: _603  and  _604
REMARK  258  A    between atoms: _603  and  _606
REMARK  259  A    between atoms: _606  and  _607
REMARK  260  A    between atoms: _607  and  _608
REMARK  261  A    between atoms: _610  and  _612
REMARK  262  A    between atoms: _612  and  _613
REMARK  263  A    between atoms: _612  and  _615
REMARK  264  A    between atoms: _615  and  _616
REMARK                            x       y       z     vdW  Elec       q    Type
REMARK                         _______ _______ _______ _____ _____    ______ ____
ROOT
ATOM      1  CA  PHE A   3      40.107  11.703  76.507  0.00  0.00    +0.153 C 
ENDROOT
BRANCH   1   3
ATOM      2  C   GLY A   2      41.002  13.836  75.779  0.00  0.00    +0.243 C 
ATOM      3  N   PHE A   3      39.931  13.124  76.178  0.00  0.00    -0.297 N 
ATOM      4  H   PHE A   3      38.995  13.572  76.252  0.00  0.00    +0.150 HD
ATOM      5  O   GLY A   2      42.117  13.307  75.657  0.00  0.00    -0.273 OA
BRANCH   2   6
ATOM      6  CA  GLY A   2      40.809  15.305  75.505  0.00  0.00    +0.176 C 
BRANCH   6   9
ATOM      7  C   ALA A   1      39.049  16.957  75.540  0.00  0.00    +0.238 C 
ATOM      8  O   ALA A   1      39.702  17.776  76.199  0.00  0.00    -0.274 OA
ATOM      9  N   GLY A   2      39.464  15.725  75.203  0.00  0.00    -0.296 N 
ATOM     10  H   GLY A   2      38.813  15.072  74.723  0.00  0.00    +0.150 HD
BRANCH   7  11
ATOM     11  CA  ALA A   1      37.644  17.361  75.088  0.00  0.00    +0.145 C 
ATOM     12  CB  ALA A   1      36.736  17.433  76.315  0.00  0.00    +0.028 C 
BRANCH  11  13
ATOM     13  N   ALA A   1      37.098  16.419  74.116  0.00  0.00    -0.238 NA
ATOM     14  H   ALA A   1      36.475  15.653  74.443  0.00  0.00    +0.142 HD
ENDBRANCH  11  13
ENDBRANCH   7  11
ENDBRANCH   6   9
ENDBRANCH   2   6
ENDBRANCH   1   3
BRANCH   1  15
ATOM     15  C   PHE A   3      40.579  10.957  75.271  0.00  0.00    +0.241 C 
ATOM     16  O   PHE A   3      41.370  10.010  75.447  0.00  0.00    -0.273 OA
ATOM     17  N   GLY A   4      40.151  11.313  74.037  0.00  0.00    -0.296 N 
ATOM     18  H   GLY A   4      39.434  12.054  73.902  0.00  0.00    +0.150 HD
BRANCH  17  19
ATOM     19  CA  GLY A   4      40.745  10.606  72.904  0.00  0.00    +0.163 C 
BRANCH  19  20
ATOM     20  C   GLY A   4      40.556   9.121  72.945  0.00  0.00    +0.229 C 
ATOM     21  O   GLY A   4      39.483   8.662  73.322  0.00  0.00    -0.286 OA
ENDBRANCH  19  20
ENDBRANCH  17  19
ENDBRANCH   1  15
BRANCH   1  22
ATOM     22  CB  PHE A   3      38.823  11.081  77.059  0.00  0.00    +0.055 C 
BRANCH  22  23
ATOM     23  CG  PHE A   3      38.721  11.129  78.576  0.00  0.00    -0.020 A 
ATOM     24  CD2 PHE A   3      39.392  10.159  79.323  0.00  0.00    -0.004 A 
ATOM     25  CE2 PHE A   3      39.336  10.171  80.685  0.00  0.00    -0.000 A 
ATOM     26  CZ  PHE A   3      38.573  11.136  81.321  0.00  0.00    -0.000 A 
ATOM     27  CE1 PHE A   3      37.890  12.098  80.607  0.00  0.00    -0.000 A 
ATOM     28  CD1 PHE A   3      37.980  12.081  79.214  0.00  0.00    -0.004 A 
ENDBRANCH  22  23
ENDBRANCH   1  22
TORSDOF 10
REMARK  Name = ../refined-set-2016/1fcx/1fcx_pocket.pdb
REMARK  264 active torsions:
REMARK  status: ('A' for Active; 'I' for Inactive)
REMARK    1  A    between atoms: _1  and  _3
REMARK    2  A    between atoms: _3  and  _4
REMARK    3  A    between atoms: _3  and  _6
REMARK    4  A    between atoms: _6  and  _7
REMARK    5  A    between atoms: _10  and  _12
REMARK    6  A    between atoms: _12  and  _13
REMARK    7  A    between atoms: _12  and  _15
REMARK    8  A    between atoms: _15  and  _16
REMARK    9  A    between atoms: _23  and  _24
REMARK   10  A    between atoms: _29  and  _31
REMARK   11  A    between atoms: _31  and  _32
REMARK   12  A    between atoms: _31  and  _34
REMARK   13  A    between atoms: _34  and  _35
REMARK   14  A    between atoms: _38  and  _40
REMARK   15  A    between atoms: _40  and  _41
REMARK   16  A    between atoms: _40  and  _43
REMARK   17  A    between atoms: _43  and  _44
REMARK   18  A    between atoms: _47  and  _49
REMARK   19  A    between atoms: _49  and  _50
REMARK   20  A    between atoms: _49  and  _52
REMARK   21  A    between atoms: _52  and  _53
REMARK   22  A    between atoms: _63  and  _65
REMARK   23  A    between atoms: _65  and  _66
REMARK   24  A    between atoms: _65  and  _68
REMARK   25  A    between atoms: _68  and  _69
REMARK   26  A    between atoms: _69  and  _70
REMARK   27  A    between atoms: _70  and  _71
REMARK   28  A    between atoms: _71  and  _72
REMARK   29  A    between atoms: _76  and  _78
REMARK   30  A    between atoms: _78  and  _79
REMARK   31  A    between atoms: _78  and  _81
REMARK   32  A    between atoms: _81  and  _82
REMARK   33  A    between atoms: _88  and  _90
REMARK   34  A    between atoms: _90  and  _91
REMARK   35  A    between atoms: _90  and  _93
REMARK   36  A    between atoms: _93  and  _94
REMARK   37  A    between atoms: _96  and  _98
REMARK   38  A    between atoms: _98  and  _99
REMARK   39  A    between atoms: _98  and  _101
REMARK   40  A    between atoms: _101  and  _102
REMARK   41  A    between atoms: _102  and  _103
REMARK   42  A    between atoms: _106  and  _108
REMARK   43  A    between atoms: _108  and  _109
REMARK   44  A    between atoms: _108  and  _111
REMARK   45  A    between atoms: _111  and  _112
REMARK   46  A    between atoms: _115  and  _117
REMARK   47  A    between atoms: _117  and  _118
REMARK   48  A    between atoms: _121  and  _123
REMARK   49  A    between atoms: _123  and  _124
REMARK   50  A    between atoms: _123  and  _126
REMARK   51  A    between atoms: _126  and  _127
REMARK   52  A    between atoms: _130  and  _132
REMARK   53  A    between atoms: _132  and  _133
REMARK   54  A    between atoms: _132  and  _135
REMARK   55  A    between atoms: _135  and  _136
REMARK   56  A    between atoms: _136  and  _137
REMARK   57  A    between atoms: _137  and  _138
REMARK   58  A    between atoms: _138  and  _139
REMARK   59  A    between atoms: _143  and  _145
REMARK   60  A    between atoms: _145  and  _146
REMARK   61  A    between atoms: _145  and  _148
REMARK   62  A    between atoms: _150  and  _152
REMARK   63  A    between atoms: _152  and  _153
REMARK   64  A    between atoms: _152  and  _155
REMARK   65  A    between atoms: _155  and  _156
REMARK   66  A    between atoms: _159  and  _161
REMARK   67  A    between atoms: _161  and  _162
REMARK   68  A    between atoms: _161  and  _164
REMARK   69  A    between atoms: _164  and  _165
REMARK   70  A    between atoms: _165  and  _166
REMARK   71  A    between atoms: _166  and  _167
REMARK   72  A    between atoms: _167  and  _168
REMARK   73  A    between atoms: _172  and  _174
REMARK   74  A    between atoms: _174  and  _175
REMARK   75  A    between atoms: _174  and  _177
REMARK   76  A    between atoms: _177  and  _178
REMARK   77  A    between atoms: _181  and  _183
REMARK   78  A    between atoms: _183  and  _184
REMARK   79  A    between atoms: _183  and  _186
REMARK   80  A    between atoms: _188  and  _190
REMARK   81  A    between atoms: _190  and  _191
REMARK   82  A    between atoms: _190  and  _193
REMARK   83  A    between atoms: _193  and  _194
REMARK   84  A    between atoms: _197  and  _199
REMARK   85  A    between atoms: _199  and  _200
REMARK   86  A    between atoms: _199  and  _202
REMARK   87  A    between atoms: _202  and  _203
REMARK   88  A    between atoms: _206  and  _208
REMARK   89  A    between atoms: _208  and  _209
REMARK   90  A    between atoms: _208  and  _211
REMARK   91  A    between atoms: _211  and  _212
REMARK   92  A    between atoms: _215  and  _217
REMARK   93  A    between atoms: _217  and  _218
REMARK   94  A    between atoms: _217  and  _220
REMARK   95  A    between atoms: _220  and  _221
REMARK   96  A    between atoms: _224  and  _226
REMARK   97  A    between atoms: _226  and  _227
REMARK   98  A    between atoms: _226  and  _229
REMARK   99  A    between atoms: _229  and  _230
REMARK  100  A    between atoms: _230  and  _231
REMARK  101  A    between atoms: _233  and  _235
REMARK  102  A    between atoms: _235  and  _236
REMARK  103  A    between atoms: _235  and  _238
REMARK  104  A    between atoms: _238  and  _239
REMARK  105  A    between atoms: _242  and  _244
REMARK  106  A    between atoms: _244  and  _245
REMARK  107  A    between atoms: _244  and  _247
REMARK  108  A    between atoms: _247  and  _248
REMARK  109  A    between atoms: _248  and  _249
REMARK  110  A    between atoms: _249  and  _250
REMARK  111  A    between atoms: _259  and  _261
REMARK  112  A    between atoms: _261  and  _262
REMARK  113  A    between atoms: _261  and  _264
REMARK  114  A    between atoms: _264  and  _265
REMARK  115  A    between atoms: _268  and  _270
REMARK  116  A    between atoms: _270  and  _271
REMARK  117  A    between atoms: _270  and  _273
REMARK  118  A    between atoms: _275  and  _277
REMARK  119  A    between atoms: _277  and  _278
REMARK  120  A    between atoms: _277  and  _280
REMARK  121  A    between atoms: _280  and  _281
REMARK  122  A    between atoms: _284  and  _286
REMARK  123  A    between atoms: _286  and  _287
REMARK  124  A    between atoms: _286  and  _289
REMARK  125  A    between atoms: _289  and  _290
REMARK  126  A    between atoms: _290  and  _291
REMARK  127  A    between atoms: _291  and  _292
REMARK  128  A    between atoms: _301  and  _303
REMARK  129  A    between atoms: _303  and  _304
REMARK  130  A    between atoms: _303  and  _306
REMARK  131  A    between atoms: _306  and  _307
REMARK  132  A    between atoms: _307  and  _308
REMARK  133  A    between atoms: _310  and  _312
REMARK  134  A    between atoms: _312  and  _313
REMARK  135  A    between atoms: _312  and  _315
REMARK  136  A    between atoms: _315  and  _316
REMARK  137  A    between atoms: _319  and  _321
REMARK  138  A    between atoms: _321  and  _322
REMARK  139  A    between atoms: _321  and  _324
REMARK  140  A    between atoms: _324  and  _325
REMARK  141  A    between atoms: _331  and  _333
REMARK  142  A    between atoms: _333  and  _334
REMARK  143  A    between atoms: _333  and  _336
REMARK  144  A    between atoms: _336  and  _337
REMARK  145  A    between atoms: _339  and  _341
REMARK  146  A    between atoms: _341  and  _342
REMARK  147  A    between atoms: _341  and  _344
REMARK  148  A    between atoms: _344  and  _345
REMARK  149  A    between atoms: _348  and  _350
REMARK  150  A    between atoms: _350  and  _351
REMARK  151  A    between atoms: _353  and  _355
REMARK  152  A    between atoms: _355  and  _356
REMARK  153  A    between atoms: _355  and  _358
REMARK  154  A    between atoms: _358  and  _359
REMARK  155  A    between atoms: _362  and  _364
REMARK  156  A    between atoms: _364  and  _365
REMARK  157  A    between atoms: _364  and  _367
REMARK  158  A    between atoms: _367  and  _368
REMARK  159  A    between atoms: _368  and  _369
REMARK  160  A    between atoms: _371  and  _373
REMARK  161  A    between atoms: _373  and  _374
REMARK  162  A    between atoms: _373  and  _376
REMARK  163  A    between atoms: _376  and  _377
REMARK  164  A    between atoms: _382  and  _384
REMARK  165  A    between atoms: _384  and  _385
REMARK  166  A    between atoms: _388  and  _390
REMARK  167  A    between atoms: _390  and  _391
REMARK  168  A    between atoms: _393  and  _395
REMARK  169  A    between atoms: _395  and  _396
REMARK  170  A    between atoms: _395  and  _398
REMARK  171  A    between atoms: _398  and  _399
REMARK  172  A    between atoms: _405  and  _407
REMARK  173  A    between atoms: _407  and  _408
REMARK  174  A    between atoms: _410  and  _412
REMARK  175  A    between atoms: _412  and  _413
REMARK  176  A    between atoms: _412  and  _415
REMARK  177  A    between atoms: _415  and  _416
REMARK  178  A    between atoms: _419  and  _421
REMARK  179  A    between atoms: _421  and  _422
REMARK  180  A    between atoms: _421  and  _424
REMARK  181  A    between atoms: _424  and  _425
REMARK  182  A    between atoms: _428  and  _430
REMARK  183  A    between atoms: _430  and  _431
REMARK  184  A    between atoms: _430  and  _433
REMARK  185  A    between atoms: _436  and  _438
REMARK  186  A    between atoms: _438  and  _439
REMARK  187  A    between atoms: _438  and  _441
REMARK  188  A    between atoms: _441  and  _442
REMARK  189  A    between atoms: _445  and  _447
REMARK  190  A    between atoms: _447  and  _448
REMARK  191  A    between atoms: _447  and  _450
REMARK  192  A    between atoms: _450  and  _451
REMARK  193  A    between atoms: _453  and  _455
REMARK  194  A    between atoms: _455  and  _456
REMARK  195  A    between atoms: _455  and  _458
REMARK  196  A    between atoms: _458  and  _459
REMARK  197  A    between atoms: _459  and  _460
REMARK  198  A    between atoms: _460  and  _461
REMARK  199  A    between atoms: _461  and  _462
REMARK  200  A    between atoms: _466  and  _468
REMARK  201  A    between atoms: _468  and  _469
REMARK  202  A    between atoms: _471  and  _473
REMARK  203  A    between atoms: _473  and  _474
REMARK  204  A    between atoms: _477  and  _479
REMARK  205  A    between atoms: _479  and  _480
REMARK  206  A    between atoms: _479  and  _482
REMARK  207  A    between atoms: _482  and  _483
REMARK  208  A    between atoms: _483  and  _484
REMARK  209  A    between atoms: _487  and  _489
REMARK  210  A    between atoms: _489  and  _490
REMARK  211  A    between atoms: _489  and  _492
REMARK  212  A    between atoms: _492  and  _493
REMARK  213  A    between atoms: _493  and  _494
REMARK  214  A    between atoms: _494  and  _495
REMARK  215  A    between atoms: _504  and  _506
REMARK  216  A    between atoms: _506  and  _507
REMARK  217  A    between atoms: _510  and  _512
REMARK  218  A    between atoms: _512  and  _513
REMARK  219  A    between atoms: _512  and  _515
REMARK  220  A    between atoms: _515  and  _516
REMARK  221  A    between atoms: _519  and  _521
REMARK  222  A    between atoms: _521  and  _522
REMARK  223  A    between atoms: _521  and  _524
REMARK  224  A    between atoms: _524  and  _525
REMARK  225  A    between atoms: _528  and  _530
REMARK  226  A    between atoms: _530  and  _531
REMARK  227  A    between atoms: _530  and  _533
REMARK  228  A    between atoms: _533  and  _534
REMARK  229  A    between atoms: _537  and  _539
REMARK  230  A    between atoms: _539  and  _540
REMARK  231  A    between atoms: _539  and  _542
REMARK  232  A    between atoms: _542  and  _543
REMARK  233  A    between atoms: _543  and  _544
REMARK  234  A    between atoms: _544  and  _545
REMARK  235  A    between atoms: _545  and  _546
REMARK  236  A    between atoms: _550  and  _552
REMARK  237  A    between atoms: _552  and  _553
REMARK  238  A    between atoms: _552  and  _555
REMARK  239  A    between atoms: _555  and  _556
REMARK  240  A    between atoms: _559  and  _561
REMARK  241  A    between atoms: _561  and  _562
REMARK  242  A    between atoms: _561  and  _564
REMARK  243  A    between atoms: _564  and  _565
REMARK  244  A    between atoms: _565  and  _566
REMARK  245  A    between atoms: _569  and  _570
REMARK  246  A    between atoms: _575  and  _577
REMARK  247  A    between atoms: _577  and  _578
REMARK  248  A    between atoms: _577  and  _580
REMARK  249  A    between atoms: _580  and  _581
REMARK  250  A    between atoms: _584  and  _586
REMARK  251  A    between atoms: _586  and  _587
REMARK  252  A    between atoms: _586  and  _589
REMARK  253  A    between atoms: _589  and  _590
REMARK  254  A    between atoms: _590  and  _591
REMARK  255  A    between atoms: _591  and  _592
REMARK  256  A    between atoms: _601  and  _603
REMARK  257  A    between atoms: _603  and  _604
REMARK  258  A    between atoms: _603  and  _606
REMARK  259  A    between atoms: _606  and  _607
REMARK  260  A    between atoms: _607  and  _608
REMARK  261  A    between atoms: _610  and  _612
REMARK  262  A    between atoms: _612  and  _613
REMARK  263  A    between atoms: _612  and  _615
REMARK  264  A    between atoms: _615  and  _616
REMARK                            x       y       z     vdW  Elec       q    Type
REMARK                         _______ _______ _______ _____ _____    ______ ____
ROOT
ATOM      1  C   LEU A   1      39.504   6.521  76.703  0.00  0.00    +0.238 C 
ATOM      2  O   LEU A   1      39.042   5.988  77.738  0.00  0.00    -0.274 OA
ATOM      3  N   THR A   2      38.722   7.208  75.869  0.00  0.00    -0.296 N 
ATOM      4  H   THR A   2      39.110   7.553  74.968  0.00  0.00    +0.150 HD
ENDROOT
BRANCH   1   5
ATOM      5  CA  LEU A   1      40.967   6.439  76.326  0.00  0.00    +0.145 C 
BRANCH   5   6
ATOM      6  N   LEU A   1      41.263   6.994  74.998  0.00  0.00    -0.238 NA
ATOM      7  H   LEU A   1      41.520   7.998  74.913  0.00  0.00    +0.142 HD
ENDBRANCH   5   6
BRANCH   5   8
ATOM      8  CB  LEU A   1      41.842   7.199  77.313  0.00  0.00    +0.026 C 
BRANCH   8   9
ATOM      9  CG  LEU A   1      41.735   6.846  78.783  0.00  0.00    +0.002 C 
ATOM     10  CD2 LEU A   1      42.675   7.724  79.579  0.00  0.00    +0.000 C 
ATOM     11  CD1 LEU A   1      42.018   5.384  79.036  0.00  0.00    +0.000 C 
ENDBRANCH   8   9
ENDBRANCH   5   8
ENDBRANCH   1   5
BRANCH   3  12
ATOM     12  CA  THR A   2      37.332   7.480  76.206  0.00  0.00    +0.164 C 
BRANCH  12  13
ATOM     13  C   THR A   2      36.490   6.266  76.554  0.00  0.00    +0.229 C 
ATOM     14  O   THR A   2      35.838   6.208  77.614  0.00  0.00    -0.286 OA
ENDBRANCH  12  13
BRANCH  12  15
ATOM     15  CB  THR A   2      36.599   8.198  75.030  0.00  0.00    +0.136 C 
ATOM     16  CG2 THR A   2      35.196   8.619  75.460  0.00  0.00    +0.034 C 
BRANCH  15  17
ATOM     17  OG1 THR A   2      37.299   9.396  74.726  0.00  0.00    -0.382 OA
ATOM     18  HG1 THR A   2      38.228   9.176  74.462  0.00  0.00    +0.210 HD
ENDBRANCH  15  17
ENDBRANCH  12  15
ENDBRANCH   3  12
TORSDOF 8
REMARK  Name = ../refined-set-2016/1fcx/1fcx_pocket.pdb
REMARK  264 active torsions:
REMARK  status: ('A' for Active; 'I' for Inactive)
REMARK    1  A    between atoms: _1  and  _3
REMARK    2  A    between atoms: _3  and  _4
REMARK    3  A    between atoms: _3  and  _6
REMARK    4  A    between atoms: _6  and  _7
REMARK    5  A    between atoms: _10  and  _12
REMARK    6  A    between atoms: _12  and  _13
REMARK    7  A    between atoms: _12  and  _15
REMARK    8  A    between atoms: _15  and  _16
REMARK    9  A    between atoms: _23  and  _24
REMARK   10  A    between atoms: _29  and  _31
REMARK   11  A    between atoms: _31  and  _32
REMARK   12  A    between atoms: _31  and  _34
REMARK   13  A    between atoms: _34  and  _35
REMARK   14  A    between atoms: _38  and  _40
REMARK   15  A    between atoms: _40  and  _41
REMARK   16  A    between atoms: _40  and  _43
REMARK   17  A    between atoms: _43  and  _44
REMARK   18  A    between atoms: _47  and  _49
REMARK   19  A    between atoms: _49  and  _50
REMARK   20  A    between atoms: _49  and  _52
REMARK   21  A    between atoms: _52  and  _53
REMARK   22  A    between atoms: _63  and  _65
REMARK   23  A    between atoms: _65  and  _66
REMARK   24  A    between atoms: _65  and  _68
REMARK   25  A    between atoms: _68  and  _69
REMARK   26  A    between atoms: _69  and  _70
REMARK   27  A    between atoms: _70  and  _71
REMARK   28  A    between atoms: _71  and  _72
REMARK   29  A    between atoms: _76  and  _78
REMARK   30  A    between atoms: _78  and  _79
REMARK   31  A    between atoms: _78  and  _81
REMARK   32  A    between atoms: _81  and  _82
REMARK   33  A    between atoms: _88  and  _90
REMARK   34  A    between atoms: _90  and  _91
REMARK   35  A    between atoms: _90  and  _93
REMARK   36  A    between atoms: _93  and  _94
REMARK   37  A    between atoms: _96  and  _98
REMARK   38  A    between atoms: _98  and  _99
REMARK   39  A    between atoms: _98  and  _101
REMARK   40  A    between atoms: _101  and  _102
REMARK   41  A    between atoms: _102  and  _103
REMARK   42  A    between atoms: _106  and  _108
REMARK   43  A    between atoms: _108  and  _109
REMARK   44  A    between atoms: _108  and  _111
REMARK   45  A    between atoms: _111  and  _112
REMARK   46  A    between atoms: _115  and  _117
REMARK   47  A    between atoms: _117  and  _118
REMARK   48  A    between atoms: _121  and  _123
REMARK   49  A    between atoms: _123  and  _124
REMARK   50  A    between atoms: _123  and  _126
REMARK   51  A    between atoms: _126  and  _127
REMARK   52  A    between atoms: _130  and  _132
REMARK   53  A    between atoms: _132  and  _133
REMARK   54  A    between atoms: _132  and  _135
REMARK   55  A    between atoms: _135  and  _136
REMARK   56  A    between atoms: _136  and  _137
REMARK   57  A    between atoms: _137  and  _138
REMARK   58  A    between atoms: _138  and  _139
REMARK   59  A    between atoms: _143  and  _145
REMARK   60  A    between atoms: _145  and  _146
REMARK   61  A    between atoms: _145  and  _148
REMARK   62  A    between atoms: _150  and  _152
REMARK   63  A    between atoms: _152  and  _153
REMARK   64  A    between atoms: _152  and  _155
REMARK   65  A    between atoms: _155  and  _156
REMARK   66  A    between atoms: _159  and  _161
REMARK   67  A    between atoms: _161  and  _162
REMARK   68  A    between atoms: _161  and  _164
REMARK   69  A    between atoms: _164  and  _165
REMARK   70  A    between atoms: _165  and  _166
REMARK   71  A    between atoms: _166  and  _167
REMARK   72  A    between atoms: _167  and  _168
REMARK   73  A    between atoms: _172  and  _174
REMARK   74  A    between atoms: _174  and  _175
REMARK   75  A    between atoms: _174  and  _177
REMARK   76  A    between atoms: _177  and  _178
REMARK   77  A    between atoms: _181  and  _183
REMARK   78  A    between atoms: _183  and  _184
REMARK   79  A    between atoms: _183  and  _186
REMARK   80  A    between atoms: _188  and  _190
REMARK   81  A    between atoms: _190  and  _191
REMARK   82  A    between atoms: _190  and  _193
REMARK   83  A    between atoms: _193  and  _194
REMARK   84  A    between atoms: _197  and  _199
REMARK   85  A    between atoms: _199  and  _200
REMARK   86  A    between atoms: _199  and  _202
REMARK   87  A    between atoms: _202  and  _203
REMARK   88  A    between atoms: _206  and  _208
REMARK   89  A    between atoms: _208  and  _209
REMARK   90  A    between atoms: _208  and  _211
REMARK   91  A    between atoms: _211  and  _212
REMARK   92  A    between atoms: _215  and  _217
REMARK   93  A    between atoms: _217  and  _218
REMARK   94  A    between atoms: _217  and  _220
REMARK   95  A    between atoms: _220  and  _221
REMARK   96  A    between atoms: _224  and  _226
REMARK   97  A    between atoms: _226  and  _227
REMARK   98  A    between atoms: _226  and  _229
REMARK   99  A    between atoms: _229  and  _230
REMARK  100  A    between atoms: _230  and  _231
REMARK  101  A    between atoms: _233  and  _235
REMARK  102  A    between atoms: _235  and  _236
REMARK  103  A    between atoms: _235  and  _238
REMARK  104  A    between atoms: _238  and  _239
REMARK  105  A    between atoms: _242  and  _244
REMARK  106  A    between atoms: _244  and  _245
REMARK  107  A    between atoms: _244  and  _247
REMARK  108  A    between atoms: _247  and  _248
REMARK  109  A    between atoms: _248  and  _249
REMARK  110  A    between atoms: _249  and  _250
REMARK  111  A    between atoms: _259  and  _261
REMARK  112  A    between atoms: _261  and  _262
REMARK  113  A    between atoms: _261  and  _264
REMARK  114  A    between atoms: _264  and  _265
REMARK  115  A    between atoms: _268  and  _270
REMARK  116  A    between atoms: _270  and  _271
REMARK  117  A    between atoms: _270  and  _273
REMARK  118  A    between atoms: _275  and  _277
REMARK  119  A    between atoms: _277  and  _278
REMARK  120  A    between atoms: _277  and  _280
REMARK  121  A    between atoms: _280  and  _281
REMARK  122  A    between atoms: _284  and  _286
REMARK  123  A    between atoms: _286  and  _287
REMARK  124  A    between atoms: _286  and  _289
REMARK  125  A    between atoms: _289  and  _290
REMARK  126  A    between atoms: _290  and  _291
REMARK  127  A    between atoms: _291  and  _292
REMARK  128  A    between atoms: _301  and  _303
REMARK  129  A    between atoms: _303  and  _304
REMARK  130  A    between atoms: _303  and  _306
REMARK  131  A    between atoms: _306  and  _307
REMARK  132  A    between atoms: _307  and  _308
REMARK  133  A    between atoms: _310  and  _312
REMARK  134  A    between atoms: _312  and  _313
REMARK  135  A    between atoms: _312  and  _315
REMARK  136  A    between atoms: _315  and  _316
REMARK  137  A    between atoms: _319  and  _321
REMARK  138  A    between atoms: _321  and  _322
REMARK  139  A    between atoms: _321  and  _324
REMARK  140  A    between atoms: _324  and  _325
REMARK  141  A    between atoms: _331  and  _333
REMARK  142  A    between atoms: _333  and  _334
REMARK  143  A    between atoms: _333  and  _336
REMARK  144  A    between atoms: _336  and  _337
REMARK  145  A    between atoms: _339  and  _341
REMARK  146  A    between atoms: _341  and  _342
REMARK  147  A    between atoms: _341  and  _344
REMARK  148  A    between atoms: _344  and  _345
REMARK  149  A    between atoms: _348  and  _350
REMARK  150  A    between atoms: _350  and  _351
REMARK  151  A    between atoms: _353  and  _355
REMARK  152  A    between atoms: _355  and  _356
REMARK  153  A    between atoms: _355  and  _358
REMARK  154  A    between atoms: _358  and  _359
REMARK  155  A    between atoms: _362  and  _364
REMARK  156  A    between atoms: _364  and  _365
REMARK  157  A    between atoms: _364  and  _367
REMARK  158  A    between atoms: _367  and  _368
REMARK  159  A    between atoms: _368  and  _369
REMARK  160  A    between atoms: _371  and  _373
REMARK  161  A    between atoms: _373  and  _374
REMARK  162  A    between atoms: _373  and  _376
REMARK  163  A    between atoms: _376  and  _377
REMARK  164  A    between atoms: _382  and  _384
REMARK  165  A    between atoms: _384  and  _385
REMARK  166  A    between atoms: _388  and  _390
REMARK  167  A    between atoms: _390  and  _391
REMARK  168  A    between atoms: _393  and  _395
REMARK  169  A    between atoms: _395  and  _396
REMARK  170  A    between atoms: _395  and  _398
REMARK  171  A    between atoms: _398  and  _399
REMARK  172  A    between atoms: _405  and  _407
REMARK  173  A    between atoms: _407  and  _408
REMARK  174  A    between atoms: _410  and  _412
REMARK  175  A    between atoms: _412  and  _413
REMARK  176  A    between atoms: _412  and  _415
REMARK  177  A    between atoms: _415  and  _416
REMARK  178  A    between atoms: _419  and  _421
REMARK  179  A    between atoms: _421  and  _422
REMARK  180  A    between atoms: _421  and  _424
REMARK  181  A    between atoms: _424  and  _425
REMARK  182  A    between atoms: _428  and  _430
REMARK  183  A    between atoms: _430  and  _431
REMARK  184  A    between atoms: _430  and  _433
REMARK  185  A    between atoms: _436  and  _438
REMARK  186  A    between atoms: _438  and  _439
REMARK  187  A    between atoms: _438  and  _441
REMARK  188  A    between atoms: _441  and  _442
REMARK  189  A    between atoms: _445  and  _447
REMARK  190  A    between atoms: _447  and  _448
REMARK  191  A    between atoms: _447  and  _450
REMARK  192  A    between atoms: _450  and  _451
REMARK  193  A    between atoms: _453  and  _455
REMARK  194  A    between atoms: _455  and  _456
REMARK  195  A    between atoms: _455  and  _458
REMARK  196  A    between atoms: _458  and  _459
REMARK  197  A    between atoms: _459  and  _460
REMARK  198  A    between atoms: _460  and  _461
REMARK  199  A    between atoms: _461  and  _462
REMARK  200  A    between atoms: _466  and  _468
REMARK  201  A    between atoms: _468  and  _469
REMARK  202  A    between atoms: _471  and  _473
REMARK  203  A    between atoms: _473  and  _474
REMARK  204  A    between atoms: _477  and  _479
REMARK  205  A    between atoms: _479  and  _480
REMARK  206  A    between atoms: _479  and  _482
REMARK  207  A    between atoms: _482  and  _483
REMARK  208  A    between atoms: _483  and  _484
REMARK  209  A    between atoms: _487  and  _489
REMARK  210  A    between atoms: _489  and  _490
REMARK  211  A    between atoms: _489  and  _492
REMARK  212  A    between atoms: _492  and  _493
REMARK  213  A    between atoms: _493  and  _494
REMARK  214  A    between atoms: _494  and  _495
REMARK  215  A    between atoms: _504  and  _506
REMARK  216  A    between atoms: _506  and  _507
REMARK  217  A    between atoms: _510  and  _512
REMARK  218  A    between atoms: _512  and  _513
REMARK  219  A    between atoms: _512  and  _515
REMARK  220  A    between atoms: _515  and  _516
REMARK  221  A    between atoms: _519  and  _521
REMARK  222  A    between atoms: _521  and  _522
REMARK  223  A    between atoms: _521  and  _524
REMARK  224  A    between atoms: _524  and  _525
REMARK  225  A    between atoms: _528  and  _530
REMARK  226  A    between atoms: _530  and  _531
REMARK  227  A    between atoms: _530  and  _533
REMARK  228  A    between atoms: _533  and  _534
REMARK  229  A    between atoms: _537  and  _539
REMARK  230  A    between atoms: _539  and  _540
REMARK  231  A    between atoms: _539  and  _542
REMARK  232  A    between atoms: _542  and  _543
REMARK  233  A    between atoms: _543  and  _544
REMARK  234  A    between atoms: _544  and  _545
REMARK  235  A    between atoms: _545  and  _546
REMARK  236  A    between atoms: _550  and  _552
REMARK  237  A    between atoms: _552  and  _553
REMARK  238  A    between atoms: _552  and  _555
REMARK  239  A    between atoms: _555  and  _556
REMARK  240  A    between atoms: _559  and  _561
REMARK  241  A    between atoms: _561  and  _562
REMARK  242  A    between atoms: _561  and  _564
REMARK  243  A    between atoms: _564  and  _565
REMARK  244  A    between atoms: _565  and  _566
REMARK  245  A    between atoms: _569  and  _570
REMARK  246  A    between atoms: _575  and  _577
REMARK  247  A    between atoms: _577  and  _578
REMARK  248  A    between atoms: _577  and  _580
REMARK  249  A    between atoms: _580  and  _581
REMARK  250  A    between atoms: _584  and  _586
REMARK  251  A    between atoms: _586  and  _587
REMARK  252  A    between atoms: _586  and  _589
REMARK  253  A    between atoms: _589  and  _590
REMARK  254  A    between atoms: _590  and  _591
REMARK  255  A    between atoms: _591  and  _592
REMARK  256  A    between atoms: _601  and  _603
REMARK  257  A    between atoms: _603  and  _604
REMARK  258  A    between atoms: _603  and  _606
REMARK  259  A    between atoms: _606  and  _607
REMARK  260  A    between atoms: _607  and  _608
REMARK  261  A    between atoms: _610  and  _612
REMARK  262  A    between atoms: _612  and  _613
REMARK  263  A    between atoms: _612  and  _615
REMARK  264  A    between atoms: _615  and  _616
REMARK                            x       y       z     vdW  Elec       q    Type
REMARK                         _______ _______ _______ _____ _____    ______ ____
ROOT
ATOM      1  CA  VAL A   1      36.925   5.128  81.010  0.00  0.00    +0.133 C 
ENDROOT
BRANCH   1   2
ATOM      2  CB  VAL A   1      37.381   6.594  81.001  0.00  0.00    +0.023 C 
ATOM      3  CG2 VAL A   1      36.855   7.349  82.205  0.00  0.00    +0.002 C 
ATOM      4  CG1 VAL A   1      38.907   6.583  81.019  0.00  0.00    +0.002 C 
ENDBRANCH   1   2
BRANCH   1   5
ATOM      5  N   VAL A   1      37.398   4.442  79.795  0.00  0.00    -0.239 NA
ATOM      6  H   VAL A   1      37.821   4.972  79.007  0.00  0.00    +0.142 HD
ENDBRANCH   1   5
BRANCH   1   7
ATOM      7  C   VAL A   1      35.416   5.051  81.218  0.00  0.00    +0.224 C 
ATOM      8  O   VAL A   1      34.936   4.866  82.344  0.00  0.00    -0.287 OA
ENDBRANCH   1   7
TORSDOF 3
REMARK  Name = ../refined-set-2016/1fcx/1fcx_pocket.pdb
REMARK  264 active torsions:
REMARK  status: ('A' for Active; 'I' for Inactive)
REMARK    1  A    between atoms: _1  and  _3
REMARK    2  A    between atoms: _3  and  _4
REMARK    3  A    between atoms: _3  and  _6
REMARK    4  A    between atoms: _6  and  _7
REMARK    5  A    between atoms: _10  and  _12
REMARK    6  A    between atoms: _12  and  _13
REMARK    7  A    between atoms: _12  and  _15
REMARK    8  A    between atoms: _15  and  _16
REMARK    9  A    between atoms: _23  and  _24
REMARK   10  A    between atoms: _29  and  _31
REMARK   11  A    between atoms: _31  and  _32
REMARK   12  A    between atoms: _31  and  _34
REMARK   13  A    between atoms: _34  and  _35
REMARK   14  A    between atoms: _38  and  _40
REMARK   15  A    between atoms: _40  and  _41
REMARK   16  A    between atoms: _40  and  _43
REMARK   17  A    between atoms: _43  and  _44
REMARK   18  A    between atoms: _47  and  _49
REMARK   19  A    between atoms: _49  and  _50
REMARK   20  A    between atoms: _49  and  _52
REMARK   21  A    between atoms: _52  and  _53
REMARK   22  A    between atoms: _63  and  _65
REMARK   23  A    between atoms: _65  and  _66
REMARK   24  A    between atoms: _65  and  _68
REMARK   25  A    between atoms: _68  and  _69
REMARK   26  A    between atoms: _69  and  _70
REMARK   27  A    between atoms: _70  and  _71
REMARK   28  A    between atoms: _71  and  _72
REMARK   29  A    between atoms: _76  and  _78
REMARK   30  A    between atoms: _78  and  _79
REMARK   31  A    between atoms: _78  and  _81
REMARK   32  A    between atoms: _81  and  _82
REMARK   33  A    between atoms: _88  and  _90
REMARK   34  A    between atoms: _90  and  _91
REMARK   35  A    between atoms: _90  and  _93
REMARK   36  A    between atoms: _93  and  _94
REMARK   37  A    between atoms: _96  and  _98
REMARK   38  A    between atoms: _98  and  _99
REMARK   39  A    between atoms: _98  and  _101
REMARK   40  A    between atoms: _101  and  _102
REMARK   41  A    between atoms: _102  and  _103
REMARK   42  A    between atoms: _106  and  _108
REMARK   43  A    between atoms: _108  and  _109
REMARK   44  A    between atoms: _108  and  _111
REMARK   45  A    between atoms: _111  and  _112
REMARK   46  A    between atoms: _115  and  _117
REMARK   47  A    between atoms: _117  and  _118
REMARK   48  A    between atoms: _121  and  _123
REMARK   49  A    between atoms: _123  and  _124
REMARK   50  A    between atoms: _123  and  _126
REMARK   51  A    between atoms: _126  and  _127
REMARK   52  A    between atoms: _130  and  _132
REMARK   53  A    between atoms: _132  and  _133
REMARK   54  A    between atoms: _132  and  _135
REMARK   55  A    between atoms: _135  and  _136
REMARK   56  A    between atoms: _136  and  _137
REMARK   57  A    between atoms: _137  and  _138
REMARK   58  A    between atoms: _138  and  _139
REMARK   59  A    between atoms: _143  and  _145
REMARK   60  A    between atoms: _145  and  _146
REMARK   61  A    between atoms: _145  and  _148
REMARK   62  A    between atoms: _150  and  _152
REMARK   63  A    between atoms: _152  and  _153
REMARK   64  A    between atoms: _152  and  _155
REMARK   65  A    between atoms: _155  and  _156
REMARK   66  A    between atoms: _159  and  _161
REMARK   67  A    between atoms: _161  and  _162
REMARK   68  A    between atoms: _161  and  _164
REMARK   69  A    between atoms: _164  and  _165
REMARK   70  A    between atoms: _165  and  _166
REMARK   71  A    between atoms: _166  and  _167
REMARK   72  A    between atoms: _167  and  _168
REMARK   73  A    between atoms: _172  and  _174
REMARK   74  A    between atoms: _174  and  _175
REMARK   75  A    between atoms: _174  and  _177
REMARK   76  A    between atoms: _177  and  _178
REMARK   77  A    between atoms: _181  and  _183
REMARK   78  A    between atoms: _183  and  _184
REMARK   79  A    between atoms: _183  and  _186
REMARK   80  A    between atoms: _188  and  _190
REMARK   81  A    between atoms: _190  and  _191
REMARK   82  A    between atoms: _190  and  _193
REMARK   83  A    between atoms: _193  and  _194
REMARK   84  A    between atoms: _197  and  _199
REMARK   85  A    between atoms: _199  and  _200
REMARK   86  A    between atoms: _199  and  _202
REMARK   87  A    between atoms: _202  and  _203
REMARK   88  A    between atoms: _206  and  _208
REMARK   89  A    between atoms: _208  and  _209
REMARK   90  A    between atoms: _208  and  _211
REMARK   91  A    between atoms: _211  and  _212
REMARK   92  A    between atoms: _215  and  _217
REMARK   93  A    between atoms: _217  and  _218
REMARK   94  A    between atoms: _217  and  _220
REMARK   95  A    between atoms: _220  and  _221
REMARK   96  A    between atoms: _224  and  _226
REMARK   97  A    between atoms: _226  and  _227
REMARK   98  A    between atoms: _226  and  _229
REMARK   99  A    between atoms: _229  and  _230
REMARK  100  A    between atoms: _230  and  _231
REMARK  101  A    between atoms: _233  and  _235
REMARK  102  A    between atoms: _235  and  _236
REMARK  103  A    between atoms: _235  and  _238
REMARK  104  A    between atoms: _238  and  _239
REMARK  105  A    between atoms: _242  and  _244
REMARK  106  A    between atoms: _244  and  _245
REMARK  107  A    between atoms: _244  and  _247
REMARK  108  A    between atoms: _247  and  _248
REMARK  109  A    between atoms: _248  and  _249
REMARK  110  A    between atoms: _249  and  _250
REMARK  111  A    between atoms: _259  and  _261
REMARK  112  A    between atoms: _261  and  _262
REMARK  113  A    between atoms: _261  and  _264
REMARK  114  A    between atoms: _264  and  _265
REMARK  115  A    between atoms: _268  and  _270
REMARK  116  A    between atoms: _270  and  _271
REMARK  117  A    between atoms: _270  and  _273
REMARK  118  A    between atoms: _275  and  _277
REMARK  119  A    between atoms: _277  and  _278
REMARK  120  A    between atoms: _277  and  _280
REMARK  121  A    between atoms: _280  and  _281
REMARK  122  A    between atoms: _284  and  _286
REMARK  123  A    between atoms: _286  and  _287
REMARK  124  A    between atoms: _286  and  _289
REMARK  125  A    between atoms: _289  and  _290
REMARK  126  A    between atoms: _290  and  _291
REMARK  127  A    between atoms: _291  and  _292
REMARK  128  A    between atoms: _301  and  _303
REMARK  129  A    between atoms: _303  and  _304
REMARK  130  A    between atoms: _303  and  _306
REMARK  131  A    between atoms: _306  and  _307
REMARK  132  A    between atoms: _307  and  _308
REMARK  133  A    between atoms: _310  and  _312
REMARK  134  A    between atoms: _312  and  _313
REMARK  135  A    between atoms: _312  and  _315
REMARK  136  A    between atoms: _315  and  _316
REMARK  137  A    between atoms: _319  and  _321
REMARK  138  A    between atoms: _321  and  _322
REMARK  139  A    between atoms: _321  and  _324
REMARK  140  A    between atoms: _324  and  _325
REMARK  141  A    between atoms: _331  and  _333
REMARK  142  A    between atoms: _333  and  _334
REMARK  143  A    between atoms: _333  and  _336
REMARK  144  A    between atoms: _336  and  _337
REMARK  145  A    between atoms: _339  and  _341
REMARK  146  A    between atoms: _341  and  _342
REMARK  147  A    between atoms: _341  and  _344
REMARK  148  A    between atoms: _344  and  _345
REMARK  149  A    between atoms: _348  and  _350
REMARK  150  A    between atoms: _350  and  _351
REMARK  151  A    between atoms: _353  and  _355
REMARK  152  A    between atoms: _355  and  _356
REMARK  153  A    between atoms: _355  and  _358
REMARK  154  A    between atoms: _358  and  _359
REMARK  155  A    between atoms: _362  and  _364
REMARK  156  A    between atoms: _364  and  _365
REMARK  157  A    between atoms: _364  and  _367
REMARK  158  A    between atoms: _367  and  _368
REMARK  159  A    between atoms: _368  and  _369
REMARK  160  A    between atoms: _371  and  _373
REMARK  161  A    between atoms: _373  and  _374
REMARK  162  A    between atoms: _373  and  _376
REMARK  163  A    between atoms: _376  and  _377
REMARK  164  A    between atoms: _382  and  _384
REMARK  165  A    between atoms: _384  and  _385
REMARK  166  A    between atoms: _388  and  _390
REMARK  167  A    between atoms: _390  and  _391
REMARK  168  A    between atoms: _393  and  _395
REMARK  169  A    between atoms: _395  and  _396
REMARK  170  A    between atoms: _395  and  _398
REMARK  171  A    between atoms: _398  and  _399
REMARK  172  A    between atoms: _405  and  _407
REMARK  173  A    between atoms: _407  and  _408
REMARK  174  A    between atoms: _410  and  _412
REMARK  175  A    between atoms: _412  and  _413
REMARK  176  A    between atoms: _412  and  _415
REMARK  177  A    between atoms: _415  and  _416
REMARK  178  A    between atoms: _419  and  _421
REMARK  179  A    between atoms: _421  and  _422
REMARK  180  A    between atoms: _421  and  _424
REMARK  181  A    between atoms: _424  and  _425
REMARK  182  A    between atoms: _428  and  _430
REMARK  183  A    between atoms: _430  and  _431
REMARK  184  A    between atoms: _430  and  _433
REMARK  185  A    between atoms: _436  and  _438
REMARK  186  A    between atoms: _438  and  _439
REMARK  187  A    between atoms: _438  and  _441
REMARK  188  A    between atoms: _441  and  _442
REMARK  189  A    between atoms: _445  and  _447
REMARK  190  A    between atoms: _447  and  _448
REMARK  191  A    between atoms: _447  and  _450
REMARK  192  A    between atoms: _450  and  _451
REMARK  193  A    between atoms: _453  and  _455
REMARK  194  A    between atoms: _455  and  _456
REMARK  195  A    between atoms: _455  and  _458
REMARK  196  A    between atoms: _458  and  _459
REMARK  197  A    between atoms: _459  and  _460
REMARK  198  A    between atoms: _460  and  _461
REMARK  199  A    between atoms: _461  and  _462
REMARK  200  A    between atoms: _466  and  _468
REMARK  201  A    between atoms: _468  and  _469
REMARK  202  A    between atoms: _471  and  _473
REMARK  203  A    between atoms: _473  and  _474
REMARK  204  A    between atoms: _477  and  _479
REMARK  205  A    between atoms: _479  and  _480
REMARK  206  A    between atoms: _479  and  _482
REMARK  207  A    between atoms: _482  and  _483
REMARK  208  A    between atoms: _483  and  _484
REMARK  209  A    between atoms: _487  and  _489
REMARK  210  A    between atoms: _489  and  _490
REMARK  211  A    between atoms: _489  and  _492
REMARK  212  A    between atoms: _492  and  _493
REMARK  213  A    between atoms: _493  and  _494
REMARK  214  A    between atoms: _494  and  _495
REMARK  215  A    between atoms: _504  and  _506
REMARK  216  A    between atoms: _506  and  _507
REMARK  217  A    between atoms: _510  and  _512
REMARK  218  A    between atoms: _512  and  _513
REMARK  219  A    between atoms: _512  and  _515
REMARK  220  A    between atoms: _515  and  _516
REMARK  221  A    between atoms: _519  and  _521
REMARK  222  A    between atoms: _521  and  _522
REMARK  223  A    between atoms: _521  and  _524
REMARK  224  A    between atoms: _524  and  _525
REMARK  225  A    between atoms: _528  and  _530
REMARK  226  A    between atoms: _530  and  _531
REMARK  227  A    between atoms: _530  and  _533
REMARK  228  A    between atoms: _533  and  _534
REMARK  229  A    between atoms: _537  and  _539
REMARK  230  A    between atoms: _539  and  _540
REMARK  231  A    between atoms: _539  and  _542
REMARK  232  A    between atoms: _542  and  _543
REMARK  233  A    between atoms: _543  and  _544
REMARK  234  A    between atoms: _544  and  _545
REMARK  235  A    between atoms: _545  and  _546
REMARK  236  A    between atoms: _550  and  _552
REMARK  237  A    between atoms: _552  and  _553
REMARK  238  A    between atoms: _552  and  _555
REMARK  239  A    between atoms: _555  and  _556
REMARK  240  A    between atoms: _559  and  _561
REMARK  241  A    between atoms: _561  and  _562
REMARK  242  A    between atoms: _561  and  _564
REMARK  243  A    between atoms: _564  and  _565
REMARK  244  A    between atoms: _565  and  _566
REMARK  245  A    between atoms: _569  and  _570
REMARK  246  A    between atoms: _575  and  _577
REMARK  247  A    between atoms: _577  and  _578
REMARK  248  A    between atoms: _577  and  _580
REMARK  249  A    between atoms: _580  and  _581
REMARK  250  A    between atoms: _584  and  _586
REMARK  251  A    between atoms: _586  and  _587
REMARK  252  A    between atoms: _586  and  _589
REMARK  253  A    between atoms: _589  and  _590
REMARK  254  A    between atoms: _590  and  _591
REMARK  255  A    between atoms: _591  and  _592
REMARK  256  A    between atoms: _601  and  _603
REMARK  257  A    between atoms: _603  and  _604
REMARK  258  A    between atoms: _603  and  _606
REMARK  259  A    between atoms: _606  and  _607
REMARK  260  A    between atoms: _607  and  _608
REMARK  261  A    between atoms: _610  and  _612
REMARK  262  A    between atoms: _612  and  _613
REMARK  263  A    between atoms: _612  and  _615
REMARK  264  A    between atoms: _615  and  _616
REMARK                            x       y       z     vdW  Elec       q    Type
REMARK                         _______ _______ _______ _____ _____    ______ ____
ROOT
ATOM      1  C   ILE A   1      43.994   5.432  84.314  0.00  0.00    +0.238 C 
ATOM      2  N   SER A   2      44.480   5.734  85.537  0.00  0.00    -0.296 N 
ATOM      3  H   SER A   2      44.249   5.148  86.365  0.00  0.00    +0.150 HD
ATOM      4  O   ILE A   1      44.205   6.140  83.327  0.00  0.00    -0.274 OA
ENDROOT
BRANCH   1   5
ATOM      5  CA  ILE A   1      43.184   4.156  84.202  0.00  0.00    +0.145 C 
BRANCH   5   6
ATOM      6  N   ILE A   1      43.771   3.070  85.006  0.00  0.00    -0.238 NA
ATOM      7  H   ILE A   1      43.258   2.721  85.841  0.00  0.00    +0.142 HD
ENDBRANCH   5   6
BRANCH   5   8
ATOM      8  CB  ILE A   1      41.738   4.533  84.572  0.00  0.00    +0.025 C 
ATOM      9  CG2 ILE A   1      41.563   6.033  84.421  0.00  0.00    +0.002 C 
BRANCH   8  10
ATOM     10  CG1 ILE A   1      40.683   3.770  83.768  0.00  0.00    +0.002 C 
ATOM     11  CD1 ILE A   1      39.646   3.092  84.638  0.00  0.00    +0.000 C 
ENDBRANCH   8  10
ENDBRANCH   5   8
ENDBRANCH   1   5
BRANCH   2  12
ATOM     12  CA  SER A   2      45.347   6.918  85.663  0.00  0.00    +0.166 C 
BRANCH  12  13
ATOM     13  C   SER A   2      46.677   6.757  84.932  0.00  0.00    +0.229 C 
ATOM     14  O   SER A   2      47.175   7.739  84.363  0.00  0.00    -0.286 OA
ENDBRANCH  12  13
BRANCH  12  15
ATOM     15  CB  SER A   2      45.684   7.135  87.149  0.00  0.00    +0.165 C 
BRANCH  15  16
ATOM     16  OG  SER A   2      44.529   7.529  87.825  0.00  0.00    -0.380 OA
ATOM     17  H   SER A   2      43.840   6.823  87.738  0.00  0.00    +0.211 HD
ENDBRANCH  15  16
ENDBRANCH  12  15
ENDBRANCH   2  12
TORSDOF 8
REMARK  Name = ../refined-set-2016/1fcx/1fcx_pocket.pdb
REMARK  264 active torsions:
REMARK  status: ('A' for Active; 'I' for Inactive)
REMARK    1  A    between atoms: _1  and  _3
REMARK    2  A    between atoms: _3  and  _4
REMARK    3  A    between atoms: _3  and  _6
REMARK    4  A    between atoms: _6  and  _7
REMARK    5  A    between atoms: _10  and  _12
REMARK    6  A    between atoms: _12  and  _13
REMARK    7  A    between atoms: _12  and  _15
REMARK    8  A    between atoms: _15  and  _16
REMARK    9  A    between atoms: _23  and  _24
REMARK   10  A    between atoms: _29  and  _31
REMARK   11  A    between atoms: _31  and  _32
REMARK   12  A    between atoms: _31  and  _34
REMARK   13  A    between atoms: _34  and  _35
REMARK   14  A    between atoms: _38  and  _40
REMARK   15  A    between atoms: _40  and  _41
REMARK   16  A    between atoms: _40  and  _43
REMARK   17  A    between atoms: _43  and  _44
REMARK   18  A    between atoms: _47  and  _49
REMARK   19  A    between atoms: _49  and  _50
REMARK   20  A    between atoms: _49  and  _52
REMARK   21  A    between atoms: _52  and  _53
REMARK   22  A    between atoms: _63  and  _65
REMARK   23  A    between atoms: _65  and  _66
REMARK   24  A    between atoms: _65  and  _68
REMARK   25  A    between atoms: _68  and  _69
REMARK   26  A    between atoms: _69  and  _70
REMARK   27  A    between atoms: _70  and  _71
REMARK   28  A    between atoms: _71  and  _72
REMARK   29  A    between atoms: _76  and  _78
REMARK   30  A    between atoms: _78  and  _79
REMARK   31  A    between atoms: _78  and  _81
REMARK   32  A    between atoms: _81  and  _82
REMARK   33  A    between atoms: _88  and  _90
REMARK   34  A    between atoms: _90  and  _91
REMARK   35  A    between atoms: _90  and  _93
REMARK   36  A    between atoms: _93  and  _94
REMARK   37  A    between atoms: _96  and  _98
REMARK   38  A    between atoms: _98  and  _99
REMARK   39  A    between atoms: _98  and  _101
REMARK   40  A    between atoms: _101  and  _102
REMARK   41  A    between atoms: _102  and  _103
REMARK   42  A    between atoms: _106  and  _108
REMARK   43  A    between atoms: _108  and  _109
REMARK   44  A    between atoms: _108  and  _111
REMARK   45  A    between atoms: _111  and  _112
REMARK   46  A    between atoms: _115  and  _117
REMARK   47  A    between atoms: _117  and  _118
REMARK   48  A    between atoms: _121  and  _123
REMARK   49  A    between atoms: _123  and  _124
REMARK   50  A    between atoms: _123  and  _126
REMARK   51  A    between atoms: _126  and  _127
REMARK   52  A    between atoms: _130  and  _132
REMARK   53  A    between atoms: _132  and  _133
REMARK   54  A    between atoms: _132  and  _135
REMARK   55  A    between atoms: _135  and  _136
REMARK   56  A    between atoms: _136  and  _137
REMARK   57  A    between atoms: _137  and  _138
REMARK   58  A    between atoms: _138  and  _139
REMARK   59  A    between atoms: _143  and  _145
REMARK   60  A    between atoms: _145  and  _146
REMARK   61  A    between atoms: _145  and  _148
REMARK   62  A    between atoms: _150  and  _152
REMARK   63  A    between atoms: _152  and  _153
REMARK   64  A    between atoms: _152  and  _155
REMARK   65  A    between atoms: _155  and  _156
REMARK   66  A    between atoms: _159  and  _161
REMARK   67  A    between atoms: _161  and  _162
REMARK   68  A    between atoms: _161  and  _164
REMARK   69  A    between atoms: _164  and  _165
REMARK   70  A    between atoms: _165  and  _166
REMARK   71  A    between atoms: _166  and  _167
REMARK   72  A    between atoms: _167  and  _168
REMARK   73  A    between atoms: _172  and  _174
REMARK   74  A    between atoms: _174  and  _175
REMARK   75  A    between atoms: _174  and  _177
REMARK   76  A    between atoms: _177  and  _178
REMARK   77  A    between atoms: _181  and  _183
REMARK   78  A    between atoms: _183  and  _184
REMARK   79  A    between atoms: _183  and  _186
REMARK   80  A    between atoms: _188  and  _190
REMARK   81  A    between atoms: _190  and  _191
REMARK   82  A    between atoms: _190  and  _193
REMARK   83  A    between atoms: _193  and  _194
REMARK   84  A    between atoms: _197  and  _199
REMARK   85  A    between atoms: _199  and  _200
REMARK   86  A    between atoms: _199  and  _202
REMARK   87  A    between atoms: _202  and  _203
REMARK   88  A    between atoms: _206  and  _208
REMARK   89  A    between atoms: _208  and  _209
REMARK   90  A    between atoms: _208  and  _211
REMARK   91  A    between atoms: _211  and  _212
REMARK   92  A    between atoms: _215  and  _217
REMARK   93  A    between atoms: _217  and  _218
REMARK   94  A    between atoms: _217  and  _220
REMARK   95  A    between atoms: _220  and  _221
REMARK   96  A    between atoms: _224  and  _226
REMARK   97  A    between atoms: _226  and  _227
REMARK   98  A    between atoms: _226  and  _229
REMARK   99  A    between atoms: _229  and  _230
REMARK  100  A    between atoms: _230  and  _231
REMARK  101  A    between atoms: _233  and  _235
REMARK  102  A    between atoms: _235  and  _236
REMARK  103  A    between atoms: _235  and  _238
REMARK  104  A    between atoms: _238  and  _239
REMARK  105  A    between atoms: _242  and  _244
REMARK  106  A    between atoms: _244  and  _245
REMARK  107  A    between atoms: _244  and  _247
REMARK  108  A    between atoms: _247  and  _248
REMARK  109  A    between atoms: _248  and  _249
REMARK  110  A    between atoms: _249  and  _250
REMARK  111  A    between atoms: _259  and  _261
REMARK  112  A    between atoms: _261  and  _262
REMARK  113  A    between atoms: _261  and  _264
REMARK  114  A    between atoms: _264  and  _265
REMARK  115  A    between atoms: _268  and  _270
REMARK  116  A    between atoms: _270  and  _271
REMARK  117  A    between atoms: _270  and  _273
REMARK  118  A    between atoms: _275  and  _277
REMARK  119  A    between atoms: _277  and  _278
REMARK  120  A    between atoms: _277  and  _280
REMARK  121  A    between atoms: _280  and  _281
REMARK  122  A    between atoms: _284  and  _286
REMARK  123  A    between atoms: _286  and  _287
REMARK  124  A    between atoms: _286  and  _289
REMARK  125  A    between atoms: _289  and  _290
REMARK  126  A    between atoms: _290  and  _291
REMARK  127  A    between atoms: _291  and  _292
REMARK  128  A    between atoms: _301  and  _303
REMARK  129  A    between atoms: _303  and  _304
REMARK  130  A    between atoms: _303  and  _306
REMARK  131  A    between atoms: _306  and  _307
REMARK  132  A    between atoms: _307  and  _308
REMARK  133  A    between atoms: _310  and  _312
REMARK  134  A    between atoms: _312  and  _313
REMARK  135  A    between atoms: _312  and  _315
REMARK  136  A    between atoms: _315  and  _316
REMARK  137  A    between atoms: _319  and  _321
REMARK  138  A    between atoms: _321  and  _322
REMARK  139  A    between atoms: _321  and  _324
REMARK  140  A    between atoms: _324  and  _325
REMARK  141  A    between atoms: _331  and  _333
REMARK  142  A    between atoms: _333  and  _334
REMARK  143  A    between atoms: _333  and  _336
REMARK  144  A    between atoms: _336  and  _337
REMARK  145  A    between atoms: _339  and  _341
REMARK  146  A    between atoms: _341  and  _342
REMARK  147  A    between atoms: _341  and  _344
REMARK  148  A    between atoms: _344  and  _345
REMARK  149  A    between atoms: _348  and  _350
REMARK  150  A    between atoms: _350  and  _351
REMARK  151  A    between atoms: _353  and  _355
REMARK  152  A    between atoms: _355  and  _356
REMARK  153  A    between atoms: _355  and  _358
REMARK  154  A    between atoms: _358  and  _359
REMARK  155  A    between atoms: _362  and  _364
REMARK  156  A    between atoms: _364  and  _365
REMARK  157  A    between atoms: _364  and  _367
REMARK  158  A    between atoms: _367  and  _368
REMARK  159  A    between atoms: _368  and  _369
REMARK  160  A    between atoms: _371  and  _373
REMARK  161  A    between atoms: _373  and  _374
REMARK  162  A    between atoms: _373  and  _376
REMARK  163  A    between atoms: _376  and  _377
REMARK  164  A    between atoms: _382  and  _384
REMARK  165  A    between atoms: _384  and  _385
REMARK  166  A    between atoms: _388  and  _390
REMARK  167  A    between atoms: _390  and  _391
REMARK  168  A    between atoms: _393  and  _395
REMARK  169  A    between atoms: _395  and  _396
REMARK  170  A    between atoms: _395  and  _398
REMARK  171  A    between atoms: _398  and  _399
REMARK  172  A    between atoms: _405  and  _407
REMARK  173  A    between atoms: _407  and  _408
REMARK  174  A    between atoms: _410  and  _412
REMARK  175  A    between atoms: _412  and  _413
REMARK  176  A    between atoms: _412  and  _415
REMARK  177  A    between atoms: _415  and  _416
REMARK  178  A    between atoms: _419  and  _421
REMARK  179  A    between atoms: _421  and  _422
REMARK  180  A    between atoms: _421  and  _424
REMARK  181  A    between atoms: _424  and  _425
REMARK  182  A    between atoms: _428  and  _430
REMARK  183  A    between atoms: _430  and  _431
REMARK  184  A    between atoms: _430  and  _433
REMARK  185  A    between atoms: _436  and  _438
REMARK  186  A    between atoms: _438  and  _439
REMARK  187  A    between atoms: _438  and  _441
REMARK  188  A    between atoms: _441  and  _442
REMARK  189  A    between atoms: _445  and  _447
REMARK  190  A    between atoms: _447  and  _448
REMARK  191  A    between atoms: _447  and  _450
REMARK  192  A    between atoms: _450  and  _451
REMARK  193  A    between atoms: _453  and  _455
REMARK  194  A    between atoms: _455  and  _456
REMARK  195  A    between atoms: _455  and  _458
REMARK  196  A    between atoms: _458  and  _459
REMARK  197  A    between atoms: _459  and  _460
REMARK  198  A    between atoms: _460  and  _461
REMARK  199  A    between atoms: _461  and  _462
REMARK  200  A    between atoms: _466  and  _468
REMARK  201  A    between atoms: _468  and  _469
REMARK  202  A    between atoms: _471  and  _473
REMARK  203  A    between atoms: _473  and  _474
REMARK  204  A    between atoms: _477  and  _479
REMARK  205  A    between atoms: _479  and  _480
REMARK  206  A    between atoms: _479  and  _482
REMARK  207  A    between atoms: _482  and  _483
REMARK  208  A    between atoms: _483  and  _484
REMARK  209  A    between atoms: _487  and  _489
REMARK  210  A    between atoms: _489  and  _490
REMARK  211  A    between atoms: _489  and  _492
REMARK  212  A    between atoms: _492  and  _493
REMARK  213  A    between atoms: _493  and  _494
REMARK  214  A    between atoms: _494  and  _495
REMARK  215  A    between atoms: _504  and  _506
REMARK  216  A    between atoms: _506  and  _507
REMARK  217  A    between atoms: _510  and  _512
REMARK  218  A    between atoms: _512  and  _513
REMARK  219  A    between atoms: _512  and  _515
REMARK  220  A    between atoms: _515  and  _516
REMARK  221  A    between atoms: _519  and  _521
REMARK  222  A    between atoms: _521  and  _522
REMARK  223  A    between atoms: _521  and  _524
REMARK  224  A    between atoms: _524  and  _525
REMARK  225  A    between atoms: _528  and  _530
REMARK  226  A    between atoms: _530  and  _531
REMARK  227  A    between atoms: _530  and  _533
REMARK  228  A    between atoms: _533  and  _534
REMARK  229  A    between atoms: _537  and  _539
REMARK  230  A    between atoms: _539  and  _540
REMARK  231  A    between atoms: _539  and  _542
REMARK  232  A    between atoms: _542  and  _543
REMARK  233  A    between atoms: _543  and  _544
REMARK  234  A    between atoms: _544  and  _545
REMARK  235  A    between atoms: _545  and  _546
REMARK  236  A    between atoms: _550  and  _552
REMARK  237  A    between atoms: _552  and  _553
REMARK  238  A    between atoms: _552  and  _555
REMARK  239  A    between atoms: _555  and  _556
REMARK  240  A    between atoms: _559  and  _561
REMARK  241  A    between atoms: _561  and  _562
REMARK  242  A    between atoms: _561  and  _564
REMARK  243  A    between atoms: _564  and  _565
REMARK  244  A    between atoms: _565  and  _566
REMARK  245  A    between atoms: _569  and  _570
REMARK  246  A    between atoms: _575  and  _577
REMARK  247  A    between atoms: _577  and  _578
REMARK  248  A    between atoms: _577  and  _580
REMARK  249  A    between atoms: _580  and  _581
REMARK  250  A    between atoms: _584  and  _586
REMARK  251  A    between atoms: _586  and  _587
REMARK  252  A    between atoms: _586  and  _589
REMARK  253  A    between atoms: _589  and  _590
REMARK  254  A    between atoms: _590  and  _591
REMARK  255  A    between atoms: _591  and  _592
REMARK  256  A    between atoms: _601  and  _603
REMARK  257  A    between atoms: _603  and  _604
REMARK  258  A    between atoms: _603  and  _606
REMARK  259  A    between atoms: _606  and  _607
REMARK  260  A    between atoms: _607  and  _608
REMARK  261  A    between atoms: _610  and  _612
REMARK  262  A    between atoms: _612  and  _613
REMARK  263  A    between atoms: _612  and  _615
REMARK  264  A    between atoms: _615  and  _616
REMARK                            x       y       z     vdW  Elec       q    Type
REMARK                         _______ _______ _______ _____ _____    ______ ____
ROOT
ATOM      1  CA  ARG A   5      47.210  10.270  77.050  0.00  0.00    +0.149 C 
ENDROOT
BRANCH   1   2
ATOM      2  C   ARG A   5      47.687  11.703  77.170  0.00  0.00    +0.241 C 
ATOM      3  N   ALA A   6      48.045  12.183  78.336  0.00  0.00    -0.297 N 
ATOM      4  H   ALA A   6      47.961  11.568  79.170  0.00  0.00    +0.150 HD
ATOM      5  O   ARG A   5      47.748  12.429  76.162  0.00  0.00    -0.273 OA
BRANCH   3   6
ATOM      6  CA  ALA A   6      48.557  13.543  78.522  0.00  0.00    +0.149 C 
ATOM      7  CB  ALA A   6      48.887  13.801  79.980  0.00  0.00    +0.031 C 
BRANCH   6   8
ATOM      8  C   ALA A   6      49.746  13.804  77.600  0.00  0.00    +0.241 C 
ATOM      9  N   ILE A   7      50.622  12.816  77.432  0.00  0.00    -0.297 N 
ATOM     10  H   ILE A   7      50.467  11.907  77.912  0.00  0.00    +0.150 HD
ATOM     11  O   ALA A   6      49.879  14.883  77.011  0.00  0.00    -0.273 OA
BRANCH   9  12
ATOM     12  CA  ILE A   7      51.796  12.990  76.585  0.00  0.00    +0.149 C 
BRANCH  12  13
ATOM     13  C   ILE A   7      51.388  13.214  75.147  0.00  0.00    +0.241 C 
ATOM     14  N   THR A   8      50.451  12.421  74.637  0.00  0.00    -0.295 N 
ATOM     15  H   THR A   8      50.019  11.656  75.194  0.00  0.00    +0.150 HD
ATOM     16  O   ILE A   7      51.919  14.113  74.469  0.00  0.00    -0.273 OA
BRANCH  14  17
ATOM     17  CA  THR A   8      50.055  12.683  73.237  0.00  0.00    +0.176 C 
BRANCH  17  18
ATOM     18  C   THR A   8      49.226  13.953  73.092  0.00  0.00    +0.243 C 
ATOM     19  N   LEU A   9      48.361  14.269  74.071  0.00  0.00    -0.297 N 
ATOM     20  H   LEU A   9      48.266  13.638  74.892  0.00  0.00    +0.150 HD
ATOM     21  O   THR A   8      49.373  14.688  72.109  0.00  0.00    -0.273 OA
BRANCH  19  22
ATOM     22  CA  LEU A   9      47.550  15.486  74.001  0.00  0.00    +0.149 C 
BRANCH  22  23
ATOM     23  C   LEU A   9      48.431  16.716  73.957  0.00  0.00    +0.241 C 
ATOM     24  N   LYS A  10      49.574  16.676  74.648  0.00  0.00    -0.298 N 
ATOM     25  H   LYS A  10      49.834  15.811  75.163  0.00  0.00    +0.150 HD
ATOM     26  O   LEU A   9      48.106  17.700  73.304  0.00  0.00    -0.273 OA
BRANCH  24  27
ATOM     27  CA  LYS A  10      50.463  17.835  74.687  0.00  0.00    +0.137 C 
BRANCH  27  28
ATOM     28  C   LYS A  10      50.833  18.262  73.269  0.00  0.00    +0.227 C 
ATOM     29  O   LYS A  10      51.000  19.436  72.908  0.00  0.00    -0.286 OA
ENDBRANCH  27  28
BRANCH  27  30
ATOM     30  CB  LYS A  10      51.722  17.513  75.508  0.00  0.00    +0.028 C 
BRANCH  30  31
ATOM     31  CG  LYS A  10      51.572  17.766  76.982  0.00  0.00    -0.000 C 
BRANCH  31  32
ATOM     32  CD  LYS A  10      52.686  17.109  77.790  0.00  0.00    -0.024 C 
BRANCH  32  33
ATOM     33  CE  LYS A  10      52.240  16.854  79.243  0.00  0.00    -0.086 C 
BRANCH  33  34
ATOM     34  NZ  LYS A  10      51.808  15.436  79.424  0.00  0.00    +0.380 N 
ATOM     35  HZ1 LYS A  10      51.512  15.288  80.410  0.00  0.00    -0.089 HD
ATOM     36  HZ2 LYS A  10      52.601  14.802  79.200  0.00  0.00    -0.089 HD
ATOM     37  HZ3 LYS A  10      51.011  15.234  78.788  0.00  0.00    -0.089 HD
ENDBRANCH  33  34
ENDBRANCH  32  33
ENDBRANCH  31  32
ENDBRANCH  30  31
ENDBRANCH  27  30
ENDBRANCH  24  27
ENDBRANCH  22  23
BRANCH  22  38
ATOM     38  CB  LEU A   9      46.623  15.429  75.187  0.00  0.00    +0.029 C 
BRANCH  38  39
ATOM     39  CG  LEU A   9      45.499  16.369  75.453  0.00  0.00    +0.002 C 
ATOM     40  CD2 LEU A   9      44.755  15.961  76.734  0.00  0.00    +0.000 C 
ATOM     41  CD1 LEU A   9      44.567  16.414  74.256  0.00  0.00    +0.000 C 
ENDBRANCH  38  39
ENDBRANCH  22  38
ENDBRANCH  19  22
ENDBRANCH  17  18
BRANCH  17  42
ATOM     42  CB  THR A   8      49.282  11.505  72.592  0.00  0.00    +0.137 C 
ATOM     43  CG2 THR A   8      50.211  10.326  72.478  0.00  0.00    +0.034 C 
BRANCH  42  44
ATOM     44  OG1 THR A   8      48.201  11.081  73.429  0.00  0.00    -0.382 OA
ATOM     45  HG1 THR A   8      47.725  10.329  72.995  0.00  0.00    +0.210 HD
ENDBRANCH  42  44
ENDBRANCH  17  42
ENDBRANCH  14  17
ENDBRANCH  12  13
BRANCH  12  46
ATOM     46  CB  ILE A   7      52.735  11.778  76.697  0.00  0.00    +0.027 C 
ATOM     47  CG2 ILE A   7      53.806  11.760  75.617  0.00  0.00    +0.002 C 
BRANCH  46  48
ATOM     48  CG1 ILE A   7      53.358  11.697  78.084  0.00  0.00    +0.002 C 
ATOM     49  CD1 ILE A   7      53.854  10.288  78.398  0.00  0.00    +0.000 C 
ENDBRANCH  46  48
ENDBRANCH  12  46
ENDBRANCH   9  12
ENDBRANCH   6   8
ENDBRANCH   3   6
ENDBRANCH   1   2
BRANCH   1  51
ATOM     50  C   GLU A   4      49.300   9.228  77.681  0.00  0.00    +0.241 C 
ATOM     51  N   ARG A   5      47.986   9.360  77.875  0.00  0.00    -0.297 N 
ATOM     52  H   ARG A   5      47.515   8.809  78.621  0.00  0.00    +0.150 HD
ATOM     53  O   GLU A   4      49.898   9.800  76.787  0.00  0.00    -0.273 OA
BRANCH  50  54
ATOM     54  CA  GLU A   4      50.048   8.337  78.659  0.00  0.00    +0.149 C 
BRANCH  54  57
ATOM     55  C   ALA A   3      49.781   9.778  80.619  0.00  0.00    +0.241 C 
ATOM     56  O   ALA A   3      50.435  10.666  80.072  0.00  0.00    -0.273 OA
ATOM     57  N   GLU A   4      49.551   8.610  80.016  0.00  0.00    -0.297 N 
ATOM     58  H   GLU A   4      49.009   7.877  80.516  0.00  0.00    +0.150 HD
BRANCH  55  59
ATOM     59  CA  ALA A   3      49.203  10.042  82.008  0.00  0.00    +0.149 C 
ATOM     60  CB  ALA A   3      50.110   9.585  83.151  0.00  0.00    +0.031 C 
BRANCH  59  62
ATOM     61  C   GLY A   2      46.866   9.782  81.344  0.00  0.00    +0.243 C 
ATOM     62  N   ALA A   3      47.883   9.398  82.104  0.00  0.00    -0.297 N 
ATOM     63  H   ALA A   3      47.744   8.623  82.784  0.00  0.00    +0.150 HD
ATOM     64  O   GLY A   2      46.917  10.760  80.582  0.00  0.00    -0.273 OA
BRANCH  61  65
ATOM     65  CA  GLY A   2      45.590   8.965  81.427  0.00  0.00    +0.176 C 
BRANCH  65  67
ATOM     66  C   LYS A   1      46.382   6.858  80.549  0.00  0.00    +0.238 C 
ATOM     67  N   GLY A   2      45.813   7.532  81.539  0.00  0.00    -0.296 N 
ATOM     68  H   GLY A   2      45.524   7.032  82.403  0.00  0.00    +0.150 HD
ATOM     69  O   LYS A   1      46.660   7.475  79.511  0.00  0.00    -0.274 OA
BRANCH  66  70
ATOM     70  CA  LYS A   1      46.649   5.381  80.772  0.00  0.00    +0.145 C 
BRANCH  70  71
ATOM     71  N   LYS A   1      47.027   5.123  82.161  0.00  0.00    -0.238 NA
ATOM     72  H   LYS A   1      46.403   4.550  82.765  0.00  0.00    +0.142 HD
ENDBRANCH  70  71
BRANCH  70  73
ATOM     73  CB  LYS A   1      45.452   4.524  80.362  0.00  0.00    +0.026 C 
BRANCH  73  74
ATOM     74  CG  LYS A   1      45.888   3.050  80.246  0.00  0.00    -0.000 C 
BRANCH  74  75
ATOM     75  CD  LYS A   1      44.683   2.175  79.969  0.00  0.00    -0.024 C 
BRANCH  75  76
ATOM     76  CE  LYS A   1      45.052   0.709  79.856  0.00  0.00    -0.086 C 
BRANCH  76  77
ATOM     77  NZ  LYS A   1      45.601   0.352  78.518  0.00  0.00    +0.380 N 
ATOM     78  HZ1 LYS A   1      45.835  -0.661  78.500  0.00  0.00    -0.089 HD
ATOM     79  HZ2 LYS A   1      46.459   0.911  78.336  0.00  0.00    -0.089 HD
ATOM     80  HZ3 LYS A   1      44.891   0.558  77.787  0.00  0.00    -0.089 HD
ENDBRANCH  76  77
ENDBRANCH  75  76
ENDBRANCH  74  75
ENDBRANCH  73  74
ENDBRANCH  70  73
ENDBRANCH  66  70
ENDBRANCH  65  67
ENDBRANCH  61  65
ENDBRANCH  59  62
ENDBRANCH  55  59
ENDBRANCH  54  57
BRANCH  54  81
ATOM     81  CB  GLU A   4      49.891   6.870  78.317  0.00  0.00    +0.041 C 
BRANCH  81  82
ATOM     82  CG  GLU A   4      50.687   5.945  79.224  0.00  0.00    +0.116 C 
BRANCH  82  83
ATOM     83  CD  GLU A   4      50.419   4.470  79.109  0.00  0.00    +0.365 C 
ATOM     84  OE2 GLU A   4      51.218   3.664  79.669  0.00  0.00    -0.246 OA
ATOM     85  OE1 GLU A   4      49.431   4.043  78.487  0.00  0.00    -0.246 OA
ENDBRANCH  82  83
ENDBRANCH  81  82
ENDBRANCH  54  81
ENDBRANCH  50  54
ENDBRANCH   1  51
BRANCH   1  86
ATOM     86  CB  ARG A   5      45.715  10.133  77.356  0.00  0.00    +0.033 C 
BRANCH  86  87
ATOM     87  CG  ARG A   5      44.870  11.121  76.553  0.00  0.00    +0.045 C 
BRANCH  87  88
ATOM     88  CD  ARG A   5      45.021  10.995  75.038  0.00  0.00    +0.174 C 
BRANCH  88  89
ATOM     89  NE  ARG A   5      44.152  11.928  74.317  0.00  0.00    -0.265 N 
ATOM     90  HE  ARG A   5      43.219  12.144  74.723  0.00  0.00    +0.259 HD
ATOM     91  CZ  ARG A   5      44.487  12.510  73.180  0.00  0.00    +0.342 C 
ATOM     92  NH2 ARG A   5      43.602  13.324  72.627  0.00  0.00    -0.292 N 
ATOM     93 HH21 ARG A   5      42.684  13.484  73.088  0.00  0.00    +0.255 HD
ATOM     94 HH22 ARG A   5      43.825  13.803  71.731  0.00  0.00    +0.255 HD
ATOM     95  NH1 ARG A   5      45.647  12.360  72.541  0.00  0.00    -0.292 N 
ATOM     96 HH11 ARG A   5      46.382  11.740  72.936  0.00  0.00    +0.255 HD
ATOM     97 HH12 ARG A   5      45.817  12.863  71.647  0.00  0.00    +0.255 HD
ENDBRANCH  88  89
ENDBRANCH  87  88
ENDBRANCH  86  87
ENDBRANCH   1  86
TORSDOF 43
REMARK  Name = ../refined-set-2016/1fcx/1fcx_pocket.pdb
REMARK  264 active torsions:
REMARK  status: ('A' for Active; 'I' for Inactive)
REMARK    1  A    between atoms: _1  and  _3
REMARK    2  A    between atoms: _3  and  _4
REMARK    3  A    between atoms: _3  and  _6
REMARK    4  A    between atoms: _6  and  _7
REMARK    5  A    between atoms: _10  and  _12
REMARK    6  A    between atoms: _12  and  _13
REMARK    7  A    between atoms: _12  and  _15
REMARK    8  A    between atoms: _15  and  _16
REMARK    9  A    between atoms: _23  and  _24
REMARK   10  A    between atoms: _29  and  _31
REMARK   11  A    between atoms: _31  and  _32
REMARK   12  A    between atoms: _31  and  _34
REMARK   13  A    between atoms: _34  and  _35
REMARK   14  A    between atoms: _38  and  _40
REMARK   15  A    between atoms: _40  and  _41
REMARK   16  A    between atoms: _40  and  _43
REMARK   17  A    between atoms: _43  and  _44
REMARK   18  A    between atoms: _47  and  _49
REMARK   19  A    between atoms: _49  and  _50
REMARK   20  A    between atoms: _49  and  _52
REMARK   21  A    between atoms: _52  and  _53
REMARK   22  A    between atoms: _63  and  _65
REMARK   23  A    between atoms: _65  and  _66
REMARK   24  A    between atoms: _65  and  _68
REMARK   25  A    between atoms: _68  and  _69
REMARK   26  A    between atoms: _69  and  _70
REMARK   27  A    between atoms: _70  and  _71
REMARK   28  A    between atoms: _71  and  _72
REMARK   29  A    between atoms: _76  and  _78
REMARK   30  A    between atoms: _78  and  _79
REMARK   31  A    between atoms: _78  and  _81
REMARK   32  A    between atoms: _81  and  _82
REMARK   33  A    between atoms: _88  and  _90
REMARK   34  A    between atoms: _90  and  _91
REMARK   35  A    between atoms: _90  and  _93
REMARK   36  A    between atoms: _93  and  _94
REMARK   37  A    between atoms: _96  and  _98
REMARK   38  A    between atoms: _98  and  _99
REMARK   39  A    between atoms: _98  and  _101
REMARK   40  A    between atoms: _101  and  _102
REMARK   41  A    between atoms: _102  and  _103
REMARK   42  A    between atoms: _106  and  _108
REMARK   43  A    between atoms: _108  and  _109
REMARK   44  A    between atoms: _108  and  _111
REMARK   45  A    between atoms: _111  and  _112
REMARK   46  A    between atoms: _115  and  _117
REMARK   47  A    between atoms: _117  and  _118
REMARK   48  A    between atoms: _121  and  _123
REMARK   49  A    between atoms: _123  and  _124
REMARK   50  A    between atoms: _123  and  _126
REMARK   51  A    between atoms: _126  and  _127
REMARK   52  A    between atoms: _130  and  _132
REMARK   53  A    between atoms: _132  and  _133
REMARK   54  A    between atoms: _132  and  _135
REMARK   55  A    between atoms: _135  and  _136
REMARK   56  A    between atoms: _136  and  _137
REMARK   57  A    between atoms: _137  and  _138
REMARK   58  A    between atoms: _138  and  _139
REMARK   59  A    between atoms: _143  and  _145
REMARK   60  A    between atoms: _145  and  _146
REMARK   61  A    between atoms: _145  and  _148
REMARK   62  A    between atoms: _150  and  _152
REMARK   63  A    between atoms: _152  and  _153
REMARK   64  A    between atoms: _152  and  _155
REMARK   65  A    between atoms: _155  and  _156
REMARK   66  A    between atoms: _159  and  _161
REMARK   67  A    between atoms: _161  and  _162
REMARK   68  A    between atoms: _161  and  _164
REMARK   69  A    between atoms: _164  and  _165
REMARK   70  A    between atoms: _165  and  _166
REMARK   71  A    between atoms: _166  and  _167
REMARK   72  A    between atoms: _167  and  _168
REMARK   73  A    between atoms: _172  and  _174
REMARK   74  A    between atoms: _174  and  _175
REMARK   75  A    between atoms: _174  and  _177
REMARK   76  A    between atoms: _177  and  _178
REMARK   77  A    between atoms: _181  and  _183
REMARK   78  A    between atoms: _183  and  _184
REMARK   79  A    between atoms: _183  and  _186
REMARK   80  A    between atoms: _188  and  _190
REMARK   81  A    between atoms: _190  and  _191
REMARK   82  A    between atoms: _190  and  _193
REMARK   83  A    between atoms: _193  and  _194
REMARK   84  A    between atoms: _197  and  _199
REMARK   85  A    between atoms: _199  and  _200
REMARK   86  A    between atoms: _199  and  _202
REMARK   87  A    between atoms: _202  and  _203
REMARK   88  A    between atoms: _206  and  _208
REMARK   89  A    between atoms: _208  and  _209
REMARK   90  A    between atoms: _208  and  _211
REMARK   91  A    between atoms: _211  and  _212
REMARK   92  A    between atoms: _215  and  _217
REMARK   93  A    between atoms: _217  and  _218
REMARK   94  A    between atoms: _217  and  _220
REMARK   95  A    between atoms: _220  and  _221
REMARK   96  A    between atoms: _224  and  _226
REMARK   97  A    between atoms: _226  and  _227
REMARK   98  A    between atoms: _226  and  _229
REMARK   99  A    between atoms: _229  and  _230
REMARK  100  A    between atoms: _230  and  _231
REMARK  101  A    between atoms: _233  and  _235
REMARK  102  A    between atoms: _235  and  _236
REMARK  103  A    between atoms: _235  and  _238
REMARK  104  A    between atoms: _238  and  _239
REMARK  105  A    between atoms: _242  and  _244
REMARK  106  A    between atoms: _244  and  _245
REMARK  107  A    between atoms: _244  and  _247
REMARK  108  A    between atoms: _247  and  _248
REMARK  109  A    between atoms: _248  and  _249
REMARK  110  A    between atoms: _249  and  _250
REMARK  111  A    between atoms: _259  and  _261
REMARK  112  A    between atoms: _261  and  _262
REMARK  113  A    between atoms: _261  and  _264
REMARK  114  A    between atoms: _264  and  _265
REMARK  115  A    between atoms: _268  and  _270
REMARK  116  A    between atoms: _270  and  _271
REMARK  117  A    between atoms: _270  and  _273
REMARK  118  A    between atoms: _275  and  _277
REMARK  119  A    between atoms: _277  and  _278
REMARK  120  A    between atoms: _277  and  _280
REMARK  121  A    between atoms: _280  and  _281
REMARK  122  A    between atoms: _284  and  _286
REMARK  123  A    between atoms: _286  and  _287
REMARK  124  A    between atoms: _286  and  _289
REMARK  125  A    between atoms: _289  and  _290
REMARK  126  A    between atoms: _290  and  _291
REMARK  127  A    between atoms: _291  and  _292
REMARK  128  A    between atoms: _301  and  _303
REMARK  129  A    between atoms: _303  and  _304
REMARK  130  A    between atoms: _303  and  _306
REMARK  131  A    between atoms: _306  and  _307
REMARK  132  A    between atoms: _307  and  _308
REMARK  133  A    between atoms: _310  and  _312
REMARK  134  A    between atoms: _312  and  _313
REMARK  135  A    between atoms: _312  and  _315
REMARK  136  A    between atoms: _315  and  _316
REMARK  137  A    between atoms: _319  and  _321
REMARK  138  A    between atoms: _321  and  _322
REMARK  139  A    between atoms: _321  and  _324
REMARK  140  A    between atoms: _324  and  _325
REMARK  141  A    between atoms: _331  and  _333
REMARK  142  A    between atoms: _333  and  _334
REMARK  143  A    between atoms: _333  and  _336
REMARK  144  A    between atoms: _336  and  _337
REMARK  145  A    between atoms: _339  and  _341
REMARK  146  A    between atoms: _341  and  _342
REMARK  147  A    between atoms: _341  and  _344
REMARK  148  A    between atoms: _344  and  _345
REMARK  149  A    between atoms: _348  and  _350
REMARK  150  A    between atoms: _350  and  _351
REMARK  151  A    between atoms: _353  and  _355
REMARK  152  A    between atoms: _355  and  _356
REMARK  153  A    between atoms: _355  and  _358
REMARK  154  A    between atoms: _358  and  _359
REMARK  155  A    between atoms: _362  and  _364
REMARK  156  A    between atoms: _364  and  _365
REMARK  157  A    between atoms: _364  and  _367
REMARK  158  A    between atoms: _367  and  _368
REMARK  159  A    between atoms: _368  and  _369
REMARK  160  A    between atoms: _371  and  _373
REMARK  161  A    between atoms: _373  and  _374
REMARK  162  A    between atoms: _373  and  _376
REMARK  163  A    between atoms: _376  and  _377
REMARK  164  A    between atoms: _382  and  _384
REMARK  165  A    between atoms: _384  and  _385
REMARK  166  A    between atoms: _388  and  _390
REMARK  167  A    between atoms: _390  and  _391
REMARK  168  A    between atoms: _393  and  _395
REMARK  169  A    between atoms: _395  and  _396
REMARK  170  A    between atoms: _395  and  _398
REMARK  171  A    between atoms: _398  and  _399
REMARK  172  A    between atoms: _405  and  _407
REMARK  173  A    between atoms: _407  and  _408
REMARK  174  A    between atoms: _410  and  _412
REMARK  175  A    between atoms: _412  and  _413
REMARK  176  A    between atoms: _412  and  _415
REMARK  177  A    between atoms: _415  and  _416
REMARK  178  A    between atoms: _419  and  _421
REMARK  179  A    between atoms: _421  and  _422
REMARK  180  A    between atoms: _421  and  _424
REMARK  181  A    between atoms: _424  and  _425
REMARK  182  A    between atoms: _428  and  _430
REMARK  183  A    between atoms: _430  and  _431
REMARK  184  A    between atoms: _430  and  _433
REMARK  185  A    between atoms: _436  and  _438
REMARK  186  A    between atoms: _438  and  _439
REMARK  187  A    between atoms: _438  and  _441
REMARK  188  A    between atoms: _441  and  _442
REMARK  189  A    between atoms: _445  and  _447
REMARK  190  A    between atoms: _447  and  _448
REMARK  191  A    between atoms: _447  and  _450
REMARK  192  A    between atoms: _450  and  _451
REMARK  193  A    between atoms: _453  and  _455
REMARK  194  A    between atoms: _455  and  _456
REMARK  195  A    between atoms: _455  and  _458
REMARK  196  A    between atoms: _458  and  _459
REMARK  197  A    between atoms: _459  and  _460
REMARK  198  A    between atoms: _460  and  _461
REMARK  199  A    between atoms: _461  and  _462
REMARK  200  A    between atoms: _466  and  _468
REMARK  201  A    between atoms: _468  and  _469
REMARK  202  A    between atoms: _471  and  _473
REMARK  203  A    between atoms: _473  and  _474
REMARK  204  A    between atoms: _477  and  _479
REMARK  205  A    between atoms: _479  and  _480
REMARK  206  A    between atoms: _479  and  _482
REMARK  207  A    between atoms: _482  and  _483
REMARK  208  A    between atoms: _483  and  _484
REMARK  209  A    between atoms: _487  and  _489
REMARK  210  A    between atoms: _489  and  _490
REMARK  211  A    between atoms: _489  and  _492
REMARK  212  A    between atoms: _492  and  _493
REMARK  213  A    between atoms: _493  and  _494
REMARK  214  A    between atoms: _494  and  _495
REMARK  215  A    between atoms: _504  and  _506
REMARK  216  A    between atoms: _506  and  _507
REMARK  217  A    between atoms: _510  and  _512
REMARK  218  A    between atoms: _512  and  _513
REMARK  219  A    between atoms: _512  and  _515
REMARK  220  A    between atoms: _515  and  _516
REMARK  221  A    between atoms: _519  and  _521
REMARK  222  A    between atoms: _521  and  _522
REMARK  223  A    between atoms: _521  and  _524
REMARK  224  A    between atoms: _524  and  _525
REMARK  225  A    between atoms: _528  and  _530
REMARK  226  A    between atoms: _530  and  _531
REMARK  227  A    between atoms: _530  and  _533
REMARK  228  A    between atoms: _533  and  _534
REMARK  229  A    between atoms: _537  and  _539
REMARK  230  A    between atoms: _539  and  _540
REMARK  231  A    between atoms: _539  and  _542
REMARK  232  A    between atoms: _542  and  _543
REMARK  233  A    between atoms: _543  and  _544
REMARK  234  A    between atoms: _544  and  _545
REMARK  235  A    between atoms: _545  and  _546
REMARK  236  A    between atoms: _550  and  _552
REMARK  237  A    between atoms: _552  and  _553
REMARK  238  A    between atoms: _552  and  _555
REMARK  239  A    between atoms: _555  and  _556
REMARK  240  A    between atoms: _559  and  _561
REMARK  241  A    between atoms: _561  and  _562
REMARK  242  A    between atoms: _561  and  _564
REMARK  243  A    between atoms: _564  and  _565
REMARK  244  A    between atoms: _565  and  _566
REMARK  245  A    between atoms: _569  and  _570
REMARK  246  A    between atoms: _575  and  _577
REMARK  247  A    between atoms: _577  and  _578
REMARK  248  A    between atoms: _577  and  _580
REMARK  249  A    between atoms: _580  and  _581
REMARK  250  A    between atoms: _584  and  _586
REMARK  251  A    between atoms: _586  and  _587
REMARK  252  A    between atoms: _586  and  _589
REMARK  253  A    between atoms: _589  and  _590
REMARK  254  A    between atoms: _590  and  _591
REMARK  255  A    between atoms: _591  and  _592
REMARK  256  A    between atoms: _601  and  _603
REMARK  257  A    between atoms: _603  and  _604
REMARK  258  A    between atoms: _603  and  _606
REMARK  259  A    between atoms: _606  and  _607
REMARK  260  A    between atoms: _607  and  _608
REMARK  261  A    between atoms: _610  and  _612
REMARK  262  A    between atoms: _612  and  _613
REMARK  263  A    between atoms: _612  and  _615
REMARK  264  A    between atoms: _615  and  _616
REMARK                            x       y       z     vdW  Elec       q    Type
REMARK                         _______ _______ _______ _____ _____    ______ ____
ROOT
ATOM      1  CA  ILE A   1      47.242  21.613  72.058  0.00  0.00    +0.133 C 
ENDROOT
BRANCH   1   2
ATOM      2  N   ILE A   1      47.721  20.319  71.566  0.00  0.00    -0.239 NA
ATOM      3  H   ILE A   1      48.432  19.792  72.112  0.00  0.00    +0.142 HD
ENDBRANCH   1   2
BRANCH   1   4
ATOM      4  CB  ILE A   1      46.915  21.597  73.564  0.00  0.00    +0.023 C 
ATOM      5  CG2 ILE A   1      45.781  20.621  73.867  0.00  0.00    +0.002 C 
BRANCH   4   6
ATOM      6  CG1 ILE A   1      48.146  21.315  74.392  0.00  0.00    +0.002 C 
ATOM      7  CD1 ILE A   1      47.958  21.283  75.901  0.00  0.00    +0.000 C 
ENDBRANCH   4   6
ENDBRANCH   1   4
BRANCH   1   8
ATOM      8  C   ILE A   1      48.276  22.684  71.788  0.00  0.00    +0.224 C 
ATOM      9  O   ILE A   1      49.474  22.423  71.786  0.00  0.00    -0.287 OA
ENDBRANCH   1   8
TORSDOF 4
REMARK  Name = ../refined-set-2016/1fcx/1fcx_pocket.pdb
REMARK  264 active torsions:
REMARK  status: ('A' for Active; 'I' for Inactive)
REMARK    1  A    between atoms: _1  and  _3
REMARK    2  A    between atoms: _3  and  _4
REMARK    3  A    between atoms: _3  and  _6
REMARK    4  A    between atoms: _6  and  _7
REMARK    5  A    between atoms: _10  and  _12
REMARK    6  A    between atoms: _12  and  _13
REMARK    7  A    between atoms: _12  and  _15
REMARK    8  A    between atoms: _15  and  _16
REMARK    9  A    between atoms: _23  and  _24
REMARK   10  A    between atoms: _29  and  _31
REMARK   11  A    between atoms: _31  and  _32
REMARK   12  A    between atoms: _31  and  _34
REMARK   13  A    between atoms: _34  and  _35
REMARK   14  A    between atoms: _38  and  _40
REMARK   15  A    between atoms: _40  and  _41
REMARK   16  A    between atoms: _40  and  _43
REMARK   17  A    between atoms: _43  and  _44
REMARK   18  A    between atoms: _47  and  _49
REMARK   19  A    between atoms: _49  and  _50
REMARK   20  A    between atoms: _49  and  _52
REMARK   21  A    between atoms: _52  and  _53
REMARK   22  A    between atoms: _63  and  _65
REMARK   23  A    between atoms: _65  and  _66
REMARK   24  A    between atoms: _65  and  _68
REMARK   25  A    between atoms: _68  and  _69
REMARK   26  A    between atoms: _69  and  _70
REMARK   27  A    between atoms: _70  and  _71
REMARK   28  A    between atoms: _71  and  _72
REMARK   29  A    between atoms: _76  and  _78
REMARK   30  A    between atoms: _78  and  _79
REMARK   31  A    between atoms: _78  and  _81
REMARK   32  A    between atoms: _81  and  _82
REMARK   33  A    between atoms: _88  and  _90
REMARK   34  A    between atoms: _90  and  _91
REMARK   35  A    between atoms: _90  and  _93
REMARK   36  A    between atoms: _93  and  _94
REMARK   37  A    between atoms: _96  and  _98
REMARK   38  A    between atoms: _98  and  _99
REMARK   39  A    between atoms: _98  and  _101
REMARK   40  A    between atoms: _101  and  _102
REMARK   41  A    between atoms: _102  and  _103
REMARK   42  A    between atoms: _106  and  _108
REMARK   43  A    between atoms: _108  and  _109
REMARK   44  A    between atoms: _108  and  _111
REMARK   45  A    between atoms: _111  and  _112
REMARK   46  A    between atoms: _115  and  _117
REMARK   47  A    between atoms: _117  and  _118
REMARK   48  A    between atoms: _121  and  _123
REMARK   49  A    between atoms: _123  and  _124
REMARK   50  A    between atoms: _123  and  _126
REMARK   51  A    between atoms: _126  and  _127
REMARK   52  A    between atoms: _130  and  _132
REMARK   53  A    between atoms: _132  and  _133
REMARK   54  A    between atoms: _132  and  _135
REMARK   55  A    between atoms: _135  and  _136
REMARK   56  A    between atoms: _136  and  _137
REMARK   57  A    between atoms: _137  and  _138
REMARK   58  A    between atoms: _138  and  _139
REMARK   59  A    between atoms: _143  and  _145
REMARK   60  A    between atoms: _145  and  _146
REMARK   61  A    between atoms: _145  and  _148
REMARK   62  A    between atoms: _150  and  _152
REMARK   63  A    between atoms: _152  and  _153
REMARK   64  A    between atoms: _152  and  _155
REMARK   65  A    between atoms: _155  and  _156
REMARK   66  A    between atoms: _159  and  _161
REMARK   67  A    between atoms: _161  and  _162
REMARK   68  A    between atoms: _161  and  _164
REMARK   69  A    between atoms: _164  and  _165
REMARK   70  A    between atoms: _165  and  _166
REMARK   71  A    between atoms: _166  and  _167
REMARK   72  A    between atoms: _167  and  _168
REMARK   73  A    between atoms: _172  and  _174
REMARK   74  A    between atoms: _174  and  _175
REMARK   75  A    between atoms: _174  and  _177
REMARK   76  A    between atoms: _177  and  _178
REMARK   77  A    between atoms: _181  and  _183
REMARK   78  A    between atoms: _183  and  _184
REMARK   79  A    between atoms: _183  and  _186
REMARK   80  A    between atoms: _188  and  _190
REMARK   81  A    between atoms: _190  and  _191
REMARK   82  A    between atoms: _190  and  _193
REMARK   83  A    between atoms: _193  and  _194
REMARK   84  A    between atoms: _197  and  _199
REMARK   85  A    between atoms: _199  and  _200
REMARK   86  A    between atoms: _199  and  _202
REMARK   87  A    between atoms: _202  and  _203
REMARK   88  A    between atoms: _206  and  _208
REMARK   89  A    between atoms: _208  and  _209
REMARK   90  A    between atoms: _208  and  _211
REMARK   91  A    between atoms: _211  and  _212
REMARK   92  A    between atoms: _215  and  _217
REMARK   93  A    between atoms: _217  and  _218
REMARK   94  A    between atoms: _217  and  _220
REMARK   95  A    between atoms: _220  and  _221
REMARK   96  A    between atoms: _224  and  _226
REMARK   97  A    between atoms: _226  and  _227
REMARK   98  A    between atoms: _226  and  _229
REMARK   99  A    between atoms: _229  and  _230
REMARK  100  A    between atoms: _230  and  _231
REMARK  101  A    between atoms: _233  and  _235
REMARK  102  A    between atoms: _235  and  _236
REMARK  103  A    between atoms: _235  and  _238
REMARK  104  A    between atoms: _238  and  _239
REMARK  105  A    between atoms: _242  and  _244
REMARK  106  A    between atoms: _244  and  _245
REMARK  107  A    between atoms: _244  and  _247
REMARK  108  A    between atoms: _247  and  _248
REMARK  109  A    between atoms: _248  and  _249
REMARK  110  A    between atoms: _249  and  _250
REMARK  111  A    between atoms: _259  and  _261
REMARK  112  A    between atoms: _261  and  _262
REMARK  113  A    between atoms: _261  and  _264
REMARK  114  A    between atoms: _264  and  _265
REMARK  115  A    between atoms: _268  and  _270
REMARK  116  A    between atoms: _270  and  _271
REMARK  117  A    between atoms: _270  and  _273
REMARK  118  A    between atoms: _275  and  _277
REMARK  119  A    between atoms: _277  and  _278
REMARK  120  A    between atoms: _277  and  _280
REMARK  121  A    between atoms: _280  and  _281
REMARK  122  A    between atoms: _284  and  _286
REMARK  123  A    between atoms: _286  and  _287
REMARK  124  A    between atoms: _286  and  _289
REMARK  125  A    between atoms: _289  and  _290
REMARK  126  A    between atoms: _290  and  _291
REMARK  127  A    between atoms: _291  and  _292
REMARK  128  A    between atoms: _301  and  _303
REMARK  129  A    between atoms: _303  and  _304
REMARK  130  A    between atoms: _303  and  _306
REMARK  131  A    between atoms: _306  and  _307
REMARK  132  A    between atoms: _307  and  _308
REMARK  133  A    between atoms: _310  and  _312
REMARK  134  A    between atoms: _312  and  _313
REMARK  135  A    between atoms: _312  and  _315
REMARK  136  A    between atoms: _315  and  _316
REMARK  137  A    between atoms: _319  and  _321
REMARK  138  A    between atoms: _321  and  _322
REMARK  139  A    between atoms: _321  and  _324
REMARK  140  A    between atoms: _324  and  _325
REMARK  141  A    between atoms: _331  and  _333
REMARK  142  A    between atoms: _333  and  _334
REMARK  143  A    between atoms: _333  and  _336
REMARK  144  A    between atoms: _336  and  _337
REMARK  145  A    between atoms: _339  and  _341
REMARK  146  A    between atoms: _341  and  _342
REMARK  147  A    between atoms: _341  and  _344
REMARK  148  A    between atoms: _344  and  _345
REMARK  149  A    between atoms: _348  and  _350
REMARK  150  A    between atoms: _350  and  _351
REMARK  151  A    between atoms: _353  and  _355
REMARK  152  A    between atoms: _355  and  _356
REMARK  153  A    between atoms: _355  and  _358
REMARK  154  A    between atoms: _358  and  _359
REMARK  155  A    between atoms: _362  and  _364
REMARK  156  A    between atoms: _364  and  _365
REMARK  157  A    between atoms: _364  and  _367
REMARK  158  A    between atoms: _367  and  _368
REMARK  159  A    between atoms: _368  and  _369
REMARK  160  A    between atoms: _371  and  _373
REMARK  161  A    between atoms: _373  and  _374
REMARK  162  A    between atoms: _373  and  _376
REMARK  163  A    between atoms: _376  and  _377
REMARK  164  A    between atoms: _382  and  _384
REMARK  165  A    between atoms: _384  and  _385
REMARK  166  A    between atoms: _388  and  _390
REMARK  167  A    between atoms: _390  and  _391
REMARK  168  A    between atoms: _393  and  _395
REMARK  169  A    between atoms: _395  and  _396
REMARK  170  A    between atoms: _395  and  _398
REMARK  171  A    between atoms: _398  and  _399
REMARK  172  A    between atoms: _405  and  _407
REMARK  173  A    between atoms: _407  and  _408
REMARK  174  A    between atoms: _410  and  _412
REMARK  175  A    between atoms: _412  and  _413
REMARK  176  A    between atoms: _412  and  _415
REMARK  177  A    between atoms: _415  and  _416
REMARK  178  A    between atoms: _419  and  _421
REMARK  179  A    between atoms: _421  and  _422
REMARK  180  A    between atoms: _421  and  _424
REMARK  181  A    between atoms: _424  and  _425
REMARK  182  A    between atoms: _428  and  _430
REMARK  183  A    between atoms: _430  and  _431
REMARK  184  A    between atoms: _430  and  _433
REMARK  185  A    between atoms: _436  and  _438
REMARK  186  A    between atoms: _438  and  _439
REMARK  187  A    between atoms: _438  and  _441
REMARK  188  A    between atoms: _441  and  _442
REMARK  189  A    between atoms: _445  and  _447
REMARK  190  A    between atoms: _447  and  _448
REMARK  191  A    between atoms: _447  and  _450
REMARK  192  A    between atoms: _450  and  _451
REMARK  193  A    between atoms: _453  and  _455
REMARK  194  A    between atoms: _455  and  _456
REMARK  195  A    between atoms: _455  and  _458
REMARK  196  A    between atoms: _458  and  _459
REMARK  197  A    between atoms: _459  and  _460
REMARK  198  A    between atoms: _460  and  _461
REMARK  199  A    between atoms: _461  and  _462
REMARK  200  A    between atoms: _466  and  _468
REMARK  201  A    between atoms: _468  and  _469
REMARK  202  A    between atoms: _471  and  _473
REMARK  203  A    between atoms: _473  and  _474
REMARK  204  A    between atoms: _477  and  _479
REMARK  205  A    between atoms: _479  and  _480
REMARK  206  A    between atoms: _479  and  _482
REMARK  207  A    between atoms: _482  and  _483
REMARK  208  A    between atoms: _483  and  _484
REMARK  209  A    between atoms: _487  and  _489
REMARK  210  A    between atoms: _489  and  _490
REMARK  211  A    between atoms: _489  and  _492
REMARK  212  A    between atoms: _492  and  _493
REMARK  213  A    between atoms: _493  and  _494
REMARK  214  A    between atoms: _494  and  _495
REMARK  215  A    between atoms: _504  and  _506
REMARK  216  A    between atoms: _506  and  _507
REMARK  217  A    between atoms: _510  and  _512
REMARK  218  A    between atoms: _512  and  _513
REMARK  219  A    between atoms: _512  and  _515
REMARK  220  A    between atoms: _515  and  _516
REMARK  221  A    between atoms: _519  and  _521
REMARK  222  A    between atoms: _521  and  _522
REMARK  223  A    between atoms: _521  and  _524
REMARK  224  A    between atoms: _524  and  _525
REMARK  225  A    between atoms: _528  and  _530
REMARK  226  A    between atoms: _530  and  _531
REMARK  227  A    between atoms: _530  and  _533
REMARK  228  A    between atoms: _533  and  _534
REMARK  229  A    between atoms: _537  and  _539
REMARK  230  A    between atoms: _539  and  _540
REMARK  231  A    between atoms: _539  and  _542
REMARK  232  A    between atoms: _542  and  _543
REMARK  233  A    between atoms: _543  and  _544
REMARK  234  A    between atoms: _544  and  _545
REMARK  235  A    between atoms: _545  and  _546
REMARK  236  A    between atoms: _550  and  _552
REMARK  237  A    between atoms: _552  and  _553
REMARK  238  A    between atoms: _552  and  _555
REMARK  239  A    between atoms: _555  and  _556
REMARK  240  A    between atoms: _559  and  _561
REMARK  241  A    between atoms: _561  and  _562
REMARK  242  A    between atoms: _561  and  _564
REMARK  243  A    between atoms: _564  and  _565
REMARK  244  A    between atoms: _565  and  _566
REMARK  245  A    between atoms: _569  and  _570
REMARK  246  A    between atoms: _575  and  _577
REMARK  247  A    between atoms: _577  and  _578
REMARK  248  A    between atoms: _577  and  _580
REMARK  249  A    between atoms: _580  and  _581
REMARK  250  A    between atoms: _584  and  _586
REMARK  251  A    between atoms: _586  and  _587
REMARK  252  A    between atoms: _586  and  _589
REMARK  253  A    between atoms: _589  and  _590
REMARK  254  A    between atoms: _590  and  _591
REMARK  255  A    between atoms: _591  and  _592
REMARK  256  A    between atoms: _601  and  _603
REMARK  257  A    between atoms: _603  and  _604
REMARK  258  A    between atoms: _603  and  _606
REMARK  259  A    between atoms: _606  and  _607
REMARK  260  A    between atoms: _607  and  _608
REMARK  261  A    between atoms: _610  and  _612
REMARK  262  A    between atoms: _612  and  _613
REMARK  263  A    between atoms: _612  and  _615
REMARK  264  A    between atoms: _615  and  _616
REMARK                            x       y       z     vdW  Elec       q    Type
REMARK                         _______ _______ _______ _____ _____    ______ ____
ROOT
ATOM      1  C   MET A   1      48.825  23.308  81.222  0.00  0.00    +0.241 C 
ATOM      2  N   PRO A   2      47.659  23.493  81.836  0.00  0.00    -0.273 N 
ATOM      3  CA  PRO A   2      47.594  24.322  83.052  0.00  0.00    +0.140 C 
ATOM      4  CB  PRO A   2      46.125  24.203  83.463  0.00  0.00    +0.030 C 
ATOM      5  CG  PRO A   2      45.417  23.938  82.161  0.00  0.00    +0.024 C 
ATOM      6  CD  PRO A   2      46.321  23.037  81.395  0.00  0.00    +0.094 C 
ATOM      7  O   MET A   1      49.882  23.847  81.533  0.00  0.00    -0.273 OA
ENDROOT
BRANCH   3   8
ATOM      8  C   PRO A   2      48.572  23.842  84.128  0.00  0.00    +0.227 C 
ATOM      9  O   PRO A   2      48.882  22.667  84.281  0.00  0.00    -0.286 OA
ENDBRANCH   3   8
BRANCH   1  10
ATOM     10  CA  MET A   1      48.805  22.350  80.040  0.00  0.00    +0.146 C 
BRANCH  10  11
ATOM     11  N   MET A   1      49.907  22.614  79.152  0.00  0.00    -0.238 NA
ATOM     12  H   MET A   1      50.676  21.929  79.006  0.00  0.00    +0.142 HD
ENDBRANCH  10  11
BRANCH  10  13
ATOM     13  CB  MET A   1      48.921  20.894  80.495  0.00  0.00    +0.038 C 
BRANCH  13  14
ATOM     14  CG  MET A   1      48.426  19.989  79.370  0.00  0.00    +0.060 C 
BRANCH  14  15
ATOM     15  SD  MET A   1      48.258  18.314  79.911  0.00  0.00    -0.139 S 
ATOM     16  CE  MET A   1      47.850  17.518  78.368  0.00  0.00    +0.069 C 
ENDBRANCH  14  15
ENDBRANCH  13  14
ENDBRANCH  10  13
ENDBRANCH   1  10
TORSDOF 6
REMARK  Name = ../refined-set-2016/1fcx/1fcx_pocket.pdb
REMARK  264 active torsions:
REMARK  status: ('A' for Active; 'I' for Inactive)
REMARK    1  A    between atoms: _1  and  _3
REMARK    2  A    between atoms: _3  and  _4
REMARK    3  A    between atoms: _3  and  _6
REMARK    4  A    between atoms: _6  and  _7
REMARK    5  A    between atoms: _10  and  _12
REMARK    6  A    between atoms: _12  and  _13
REMARK    7  A    between atoms: _12  and  _15
REMARK    8  A    between atoms: _15  and  _16
REMARK    9  A    between atoms: _23  and  _24
REMARK   10  A    between atoms: _29  and  _31
REMARK   11  A    between atoms: _31  and  _32
REMARK   12  A    between atoms: _31  and  _34
REMARK   13  A    between atoms: _34  and  _35
REMARK   14  A    between atoms: _38  and  _40
REMARK   15  A    between atoms: _40  and  _41
REMARK   16  A    between atoms: _40  and  _43
REMARK   17  A    between atoms: _43  and  _44
REMARK   18  A    between atoms: _47  and  _49
REMARK   19  A    between atoms: _49  and  _50
REMARK   20  A    between atoms: _49  and  _52
REMARK   21  A    between atoms: _52  and  _53
REMARK   22  A    between atoms: _63  and  _65
REMARK   23  A    between atoms: _65  and  _66
REMARK   24  A    between atoms: _65  and  _68
REMARK   25  A    between atoms: _68  and  _69
REMARK   26  A    between atoms: _69  and  _70
REMARK   27  A    between atoms: _70  and  _71
REMARK   28  A    between atoms: _71  and  _72
REMARK   29  A    between atoms: _76  and  _78
REMARK   30  A    between atoms: _78  and  _79
REMARK   31  A    between atoms: _78  and  _81
REMARK   32  A    between atoms: _81  and  _82
REMARK   33  A    between atoms: _88  and  _90
REMARK   34  A    between atoms: _90  and  _91
REMARK   35  A    between atoms: _90  and  _93
REMARK   36  A    between atoms: _93  and  _94
REMARK   37  A    between atoms: _96  and  _98
REMARK   38  A    between atoms: _98  and  _99
REMARK   39  A    between atoms: _98  and  _101
REMARK   40  A    between atoms: _101  and  _102
REMARK   41  A    between atoms: _102  and  _103
REMARK   42  A    between atoms: _106  and  _108
REMARK   43  A    between atoms: _108  and  _109
REMARK   44  A    between atoms: _108  and  _111
REMARK   45  A    between atoms: _111  and  _112
REMARK   46  A    between atoms: _115  and  _117
REMARK   47  A    between atoms: _117  and  _118
REMARK   48  A    between atoms: _121  and  _123
REMARK   49  A    between atoms: _123  and  _124
REMARK   50  A    between atoms: _123  and  _126
REMARK   51  A    between atoms: _126  and  _127
REMARK   52  A    between atoms: _130  and  _132
REMARK   53  A    between atoms: _132  and  _133
REMARK   54  A    between atoms: _132  and  _135
REMARK   55  A    between atoms: _135  and  _136
REMARK   56  A    between atoms: _136  and  _137
REMARK   57  A    between atoms: _137  and  _138
REMARK   58  A    between atoms: _138  and  _139
REMARK   59  A    between atoms: _143  and  _145
REMARK   60  A    between atoms: _145  and  _146
REMARK   61  A    between atoms: _145  and  _148
REMARK   62  A    between atoms: _150  and  _152
REMARK   63  A    between atoms: _152  and  _153
REMARK   64  A    between atoms: _152  and  _155
REMARK   65  A    between atoms: _155  and  _156
REMARK   66  A    between atoms: _159  and  _161
REMARK   67  A    between atoms: _161  and  _162
REMARK   68  A    between atoms: _161  and  _164
REMARK   69  A    between atoms: _164  and  _165
REMARK   70  A    between atoms: _165  and  _166
REMARK   71  A    between atoms: _166  and  _167
REMARK   72  A    between atoms: _167  and  _168
REMARK   73  A    between atoms: _172  and  _174
REMARK   74  A    between atoms: _174  and  _175
REMARK   75  A    between atoms: _174  and  _177
REMARK   76  A    between atoms: _177  and  _178
REMARK   77  A    between atoms: _181  and  _183
REMARK   78  A    between atoms: _183  and  _184
REMARK   79  A    between atoms: _183  and  _186
REMARK   80  A    between atoms: _188  and  _190
REMARK   81  A    between atoms: _190  and  _191
REMARK   82  A    between atoms: _190  and  _193
REMARK   83  A    between atoms: _193  and  _194
REMARK   84  A    between atoms: _197  and  _199
REMARK   85  A    between atoms: _199  and  _200
REMARK   86  A    between atoms: _199  and  _202
REMARK   87  A    between atoms: _202  and  _203
REMARK   88  A    between atoms: _206  and  _208
REMARK   89  A    between atoms: _208  and  _209
REMARK   90  A    between atoms: _208  and  _211
REMARK   91  A    between atoms: _211  and  _212
REMARK   92  A    between atoms: _215  and  _217
REMARK   93  A    between atoms: _217  and  _218
REMARK   94  A    between atoms: _217  and  _220
REMARK   95  A    between atoms: _220  and  _221
REMARK   96  A    between atoms: _224  and  _226
REMARK   97  A    between atoms: _226  and  _227
REMARK   98  A    between atoms: _226  and  _229
REMARK   99  A    between atoms: _229  and  _230
REMARK  100  A    between atoms: _230  and  _231
REMARK  101  A    between atoms: _233  and  _235
REMARK  102  A    between atoms: _235  and  _236
REMARK  103  A    between atoms: _235  and  _238
REMARK  104  A    between atoms: _238  and  _239
REMARK  105  A    between atoms: _242  and  _244
REMARK  106  A    between atoms: _244  and  _245
REMARK  107  A    between atoms: _244  and  _247
REMARK  108  A    between atoms: _247  and  _248
REMARK  109  A    between atoms: _248  and  _249
REMARK  110  A    between atoms: _249  and  _250
REMARK  111  A    between atoms: _259  and  _261
REMARK  112  A    between atoms: _261  and  _262
REMARK  113  A    between atoms: _261  and  _264
REMARK  114  A    between atoms: _264  and  _265
REMARK  115  A    between atoms: _268  and  _270
REMARK  116  A    between atoms: _270  and  _271
REMARK  117  A    between atoms: _270  and  _273
REMARK  118  A    between atoms: _275  and  _277
REMARK  119  A    between atoms: _277  and  _278
REMARK  120  A    between atoms: _277  and  _280
REMARK  121  A    between atoms: _280  and  _281
REMARK  122  A    between atoms: _284  and  _286
REMARK  123  A    between atoms: _286  and  _287
REMARK  124  A    between atoms: _286  and  _289
REMARK  125  A    between atoms: _289  and  _290
REMARK  126  A    between atoms: _290  and  _291
REMARK  127  A    between atoms: _291  and  _292
REMARK  128  A    between atoms: _301  and  _303
REMARK  129  A    between atoms: _303  and  _304
REMARK  130  A    between atoms: _303  and  _306
REMARK  131  A    between atoms: _306  and  _307
REMARK  132  A    between atoms: _307  and  _308
REMARK  133  A    between atoms: _310  and  _312
REMARK  134  A    between atoms: _312  and  _313
REMARK  135  A    between atoms: _312  and  _315
REMARK  136  A    between atoms: _315  and  _316
REMARK  137  A    between atoms: _319  and  _321
REMARK  138  A    between atoms: _321  and  _322
REMARK  139  A    between atoms: _321  and  _324
REMARK  140  A    between atoms: _324  and  _325
REMARK  141  A    between atoms: _331  and  _333
REMARK  142  A    between atoms: _333  and  _334
REMARK  143  A    between atoms: _333  and  _336
REMARK  144  A    between atoms: _336  and  _337
REMARK  145  A    between atoms: _339  and  _341
REMARK  146  A    between atoms: _341  and  _342
REMARK  147  A    between atoms: _341  and  _344
REMARK  148  A    between atoms: _344  and  _345
REMARK  149  A    between atoms: _348  and  _350
REMARK  150  A    between atoms: _350  and  _351
REMARK  151  A    between atoms: _353  and  _355
REMARK  152  A    between atoms: _355  and  _356
REMARK  153  A    between atoms: _355  and  _358
REMARK  154  A    between atoms: _358  and  _359
REMARK  155  A    between atoms: _362  and  _364
REMARK  156  A    between atoms: _364  and  _365
REMARK  157  A    between atoms: _364  and  _367
REMARK  158  A    between atoms: _367  and  _368
REMARK  159  A    between atoms: _368  and  _369
REMARK  160  A    between atoms: _371  and  _373
REMARK  161  A    between atoms: _373  and  _374
REMARK  162  A    between atoms: _373  and  _376
REMARK  163  A    between atoms: _376  and  _377
REMARK  164  A    between atoms: _382  and  _384
REMARK  165  A    between atoms: _384  and  _385
REMARK  166  A    between atoms: _388  and  _390
REMARK  167  A    between atoms: _390  and  _391
REMARK  168  A    between atoms: _393  and  _395
REMARK  169  A    between atoms: _395  and  _396
REMARK  170  A    between atoms: _395  and  _398
REMARK  171  A    between atoms: _398  and  _399
REMARK  172  A    between atoms: _405  and  _407
REMARK  173  A    between atoms: _407  and  _408
REMARK  174  A    between atoms: _410  and  _412
REMARK  175  A    between atoms: _412  and  _413
REMARK  176  A    between atoms: _412  and  _415
REMARK  177  A    between atoms: _415  and  _416
REMARK  178  A    between atoms: _419  and  _421
REMARK  179  A    between atoms: _421  and  _422
REMARK  180  A    between atoms: _421  and  _424
REMARK  181  A    between atoms: _424  and  _425
REMARK  182  A    between atoms: _428  and  _430
REMARK  183  A    between atoms: _430  and  _431
REMARK  184  A    between atoms: _430  and  _433
REMARK  185  A    between atoms: _436  and  _438
REMARK  186  A    between atoms: _438  and  _439
REMARK  187  A    between atoms: _438  and  _441
REMARK  188  A    between atoms: _441  and  _442
REMARK  189  A    between atoms: _445  and  _447
REMARK  190  A    between atoms: _447  and  _448
REMARK  191  A    between atoms: _447  and  _450
REMARK  192  A    between atoms: _450  and  _451
REMARK  193  A    between atoms: _453  and  _455
REMARK  194  A    between atoms: _455  and  _456
REMARK  195  A    between atoms: _455  and  _458
REMARK  196  A    between atoms: _458  and  _459
REMARK  197  A    between atoms: _459  and  _460
REMARK  198  A    between atoms: _460  and  _461
REMARK  199  A    between atoms: _461  and  _462
REMARK  200  A    between atoms: _466  and  _468
REMARK  201  A    between atoms: _468  and  _469
REMARK  202  A    between atoms: _471  and  _473
REMARK  203  A    between atoms: _473  and  _474
REMARK  204  A    between atoms: _477  and  _479
REMARK  205  A    between atoms: _479  and  _480
REMARK  206  A    between atoms: _479  and  _482
REMARK  207  A    between atoms: _482  and  _483
REMARK  208  A    between atoms: _483  and  _484
REMARK  209  A    between atoms: _487  and  _489
REMARK  210  A    between atoms: _489  and  _490
REMARK  211  A    between atoms: _489  and  _492
REMARK  212  A    between atoms: _492  and  _493
REMARK  213  A    between atoms: _493  and  _494
REMARK  214  A    between atoms: _494  and  _495
REMARK  215  A    between atoms: _504  and  _506
REMARK  216  A    between atoms: _506  and  _507
REMARK  217  A    between atoms: _510  and  _512
REMARK  218  A    between atoms: _512  and  _513
REMARK  219  A    between atoms: _512  and  _515
REMARK  220  A    between atoms: _515  and  _516
REMARK  221  A    between atoms: _519  and  _521
REMARK  222  A    between atoms: _521  and  _522
REMARK  223  A    between atoms: _521  and  _524
REMARK  224  A    between atoms: _524  and  _525
REMARK  225  A    between atoms: _528  and  _530
REMARK  226  A    between atoms: _530  and  _531
REMARK  227  A    between atoms: _530  and  _533
REMARK  228  A    between atoms: _533  and  _534
REMARK  229  A    between atoms: _537  and  _539
REMARK  230  A    between atoms: _539  and  _540
REMARK  231  A    between atoms: _539  and  _542
REMARK  232  A    between atoms: _542  and  _543
REMARK  233  A    between atoms: _543  and  _544
REMARK  234  A    between atoms: _544  and  _545
REMARK  235  A    between atoms: _545  and  _546
REMARK  236  A    between atoms: _550  and  _552
REMARK  237  A    between atoms: _552  and  _553
REMARK  238  A    between atoms: _552  and  _555
REMARK  239  A    between atoms: _555  and  _556
REMARK  240  A    between atoms: _559  and  _561
REMARK  241  A    between atoms: _561  and  _562
REMARK  242  A    between atoms: _561  and  _564
REMARK  243  A    between atoms: _564  and  _565
REMARK  244  A    between atoms: _565  and  _566
REMARK  245  A    between atoms: _569  and  _570
REMARK  246  A    between atoms: _575  and  _577
REMARK  247  A    between atoms: _577  and  _578
REMARK  248  A    between atoms: _577  and  _580
REMARK  249  A    between atoms: _580  and  _581
REMARK  250  A    between atoms: _584  and  _586
REMARK  251  A    between atoms: _586  and  _587
REMARK  252  A    between atoms: _586  and  _589
REMARK  253  A    between atoms: _589  and  _590
REMARK  254  A    between atoms: _590  and  _591
REMARK  255  A    between atoms: _591  and  _592
REMARK  256  A    between atoms: _601  and  _603
REMARK  257  A    between atoms: _603  and  _604
REMARK  258  A    between atoms: _603  and  _606
REMARK  259  A    between atoms: _606  and  _607
REMARK  260  A    between atoms: _607  and  _608
REMARK  261  A    between atoms: _610  and  _612
REMARK  262  A    between atoms: _612  and  _613
REMARK  263  A    between atoms: _612  and  _615
REMARK  264  A    between atoms: _615  and  _616
REMARK                            x       y       z     vdW  Elec       q    Type
REMARK                         _______ _______ _______ _____ _____    ______ ____
ROOT
ATOM      1  CA  ARG A   2      51.578  19.792  85.137  0.00  0.00    +0.137 C 
ENDROOT
BRANCH   1   4
ATOM      2  C   ILE A   1      49.271  19.274  85.644  0.00  0.00    +0.238 C 
ATOM      3  O   ILE A   1      49.567  18.087  85.848  0.00  0.00    -0.274 OA
ATOM      4  N   ARG A   2      50.174  20.195  85.292  0.00  0.00    -0.298 N 
ATOM      5  H   ARG A   2      49.887  21.181  85.130  0.00  0.00    +0.150 HD
BRANCH   2   6
ATOM      6  CA  ILE A   1      47.843  19.734  85.841  0.00  0.00    +0.145 C 
BRANCH   6   7
ATOM      7  N   ILE A   1      47.815  21.017  86.563  0.00  0.00    -0.238 NA
ATOM      8  H   ILE A   1      47.456  21.866  86.082  0.00  0.00    +0.142 HD
ENDBRANCH   6   7
BRANCH   6   9
ATOM      9  CB  ILE A   1      47.056  19.835  84.529  0.00  0.00    +0.025 C 
ATOM     10  CG2 ILE A   1      47.372  18.648  83.629  0.00  0.00    +0.002 C 
BRANCH   9  11
ATOM     11  CG1 ILE A   1      45.563  19.947  84.819  0.00  0.00    +0.002 C 
ATOM     12  CD1 ILE A   1      44.694  20.348  83.622  0.00  0.00    +0.000 C 
ENDBRANCH   9  11
ENDBRANCH   6   9
ENDBRANCH   2   6
ENDBRANCH   1   4
BRANCH   1  13
ATOM     13  C   ARG A   2      52.165  19.319  86.463  0.00  0.00    +0.227 C 
ATOM     14  O   ARG A   2      52.929  18.379  86.537  0.00  0.00    -0.286 OA
ENDBRANCH   1  13
BRANCH   1  15
ATOM     15  CB  ARG A   2      52.372  20.947  84.536  0.00  0.00    +0.031 C 
BRANCH  15  16
ATOM     16  CG  ARG A   2      51.935  21.316  83.147  0.00  0.00    +0.045 C 
BRANCH  16  17
ATOM     17  CD  ARG A   2      52.612  22.554  82.596  0.00  0.00    +0.174 C 
BRANCH  17  18
ATOM     18  NE  ARG A   2      53.923  22.245  82.126  0.00  0.00    -0.265 N 
ATOM     19  HE  ARG A   2      54.222  21.250  82.169  0.00  0.00    +0.259 HD
ATOM     20  CZ  ARG A   2      54.799  23.126  81.636  0.00  0.00    +0.342 C 
ATOM     21  NH2 ARG A   2      54.465  24.403  81.597  0.00  0.00    -0.292 N 
ATOM     22 HH21 ARG A   2      53.533  24.708  81.944  0.00  0.00    +0.255 HD
ATOM     23 HH22 ARG A   2      55.134  25.104  81.219  0.00  0.00    +0.255 HD
ATOM     24  NH1 ARG A   2      55.980  22.687  81.220  0.00  0.00    -0.292 N 
ATOM     25 HH11 ARG A   2      56.209  21.674  81.279  0.00  0.00    +0.255 HD
ATOM     26 HH12 ARG A   2      56.677  23.356  80.835  0.00  0.00    +0.255 HD
ENDBRANCH  17  18
ENDBRANCH  16  17
ENDBRANCH  15  16
ENDBRANCH   1  15
TORSDOF 10
REMARK  Name = ../refined-set-2016/1fcx/1fcx_pocket.pdb
REMARK  264 active torsions:
REMARK  status: ('A' for Active; 'I' for Inactive)
REMARK    1  A    between atoms: _1  and  _3
REMARK    2  A    between atoms: _3  and  _4
REMARK    3  A    between atoms: _3  and  _6
REMARK    4  A    between atoms: _6  and  _7
REMARK    5  A    between atoms: _10  and  _12
REMARK    6  A    between atoms: _12  and  _13
REMARK    7  A    between atoms: _12  and  _15
REMARK    8  A    between atoms: _15  and  _16
REMARK    9  A    between atoms: _23  and  _24
REMARK   10  A    between atoms: _29  and  _31
REMARK   11  A    between atoms: _31  and  _32
REMARK   12  A    between atoms: _31  and  _34
REMARK   13  A    between atoms: _34  and  _35
REMARK   14  A    between atoms: _38  and  _40
REMARK   15  A    between atoms: _40  and  _41
REMARK   16  A    between atoms: _40  and  _43
REMARK   17  A    between atoms: _43  and  _44
REMARK   18  A    between atoms: _47  and  _49
REMARK   19  A    between atoms: _49  and  _50
REMARK   20  A    between atoms: _49  and  _52
REMARK   21  A    between atoms: _52  and  _53
REMARK   22  A    between atoms: _63  and  _65
REMARK   23  A    between atoms: _65  and  _66
REMARK   24  A    between atoms: _65  and  _68
REMARK   25  A    between atoms: _68  and  _69
REMARK   26  A    between atoms: _69  and  _70
REMARK   27  A    between atoms: _70  and  _71
REMARK   28  A    between atoms: _71  and  _72
REMARK   29  A    between atoms: _76  and  _78
REMARK   30  A    between atoms: _78  and  _79
REMARK   31  A    between atoms: _78  and  _81
REMARK   32  A    between atoms: _81  and  _82
REMARK   33  A    between atoms: _88  and  _90
REMARK   34  A    between atoms: _90  and  _91
REMARK   35  A    between atoms: _90  and  _93
REMARK   36  A    between atoms: _93  and  _94
REMARK   37  A    between atoms: _96  and  _98
REMARK   38  A    between atoms: _98  and  _99
REMARK   39  A    between atoms: _98  and  _101
REMARK   40  A    between atoms: _101  and  _102
REMARK   41  A    between atoms: _102  and  _103
REMARK   42  A    between atoms: _106  and  _108
REMARK   43  A    between atoms: _108  and  _109
REMARK   44  A    between atoms: _108  and  _111
REMARK   45  A    between atoms: _111  and  _112
REMARK   46  A    between atoms: _115  and  _117
REMARK   47  A    between atoms: _117  and  _118
REMARK   48  A    between atoms: _121  and  _123
REMARK   49  A    between atoms: _123  and  _124
REMARK   50  A    between atoms: _123  and  _126
REMARK   51  A    between atoms: _126  and  _127
REMARK   52  A    between atoms: _130  and  _132
REMARK   53  A    between atoms: _132  and  _133
REMARK   54  A    between atoms: _132  and  _135
REMARK   55  A    between atoms: _135  and  _136
REMARK   56  A    between atoms: _136  and  _137
REMARK   57  A    between atoms: _137  and  _138
REMARK   58  A    between atoms: _138  and  _139
REMARK   59  A    between atoms: _143  and  _145
REMARK   60  A    between atoms: _145  and  _146
REMARK   61  A    between atoms: _145  and  _148
REMARK   62  A    between atoms: _150  and  _152
REMARK   63  A    between atoms: _152  and  _153
REMARK   64  A    between atoms: _152  and  _155
REMARK   65  A    between atoms: _155  and  _156
REMARK   66  A    between atoms: _159  and  _161
REMARK   67  A    between atoms: _161  and  _162
REMARK   68  A    between atoms: _161  and  _164
REMARK   69  A    between atoms: _164  and  _165
REMARK   70  A    between atoms: _165  and  _166
REMARK   71  A    between atoms: _166  and  _167
REMARK   72  A    between atoms: _167  and  _168
REMARK   73  A    between atoms: _172  and  _174
REMARK   74  A    between atoms: _174  and  _175
REMARK   75  A    between atoms: _174  and  _177
REMARK   76  A    between atoms: _177  and  _178
REMARK   77  A    between atoms: _181  and  _183
REMARK   78  A    between atoms: _183  and  _184
REMARK   79  A    between atoms: _183  and  _186
REMARK   80  A    between atoms: _188  and  _190
REMARK   81  A    between atoms: _190  and  _191
REMARK   82  A    between atoms: _190  and  _193
REMARK   83  A    between atoms: _193  and  _194
REMARK   84  A    between atoms: _197  and  _199
REMARK   85  A    between atoms: _199  and  _200
REMARK   86  A    between atoms: _199  and  _202
REMARK   87  A    between atoms: _202  and  _203
REMARK   88  A    between atoms: _206  and  _208
REMARK   89  A    between atoms: _208  and  _209
REMARK   90  A    between atoms: _208  and  _211
REMARK   91  A    between atoms: _211  and  _212
REMARK   92  A    between atoms: _215  and  _217
REMARK   93  A    between atoms: _217  and  _218
REMARK   94  A    between atoms: _217  and  _220
REMARK   95  A    between atoms: _220  and  _221
REMARK   96  A    between atoms: _224  and  _226
REMARK   97  A    between atoms: _226  and  _227
REMARK   98  A    between atoms: _226  and  _229
REMARK   99  A    between atoms: _229  and  _230
REMARK  100  A    between atoms: _230  and  _231
REMARK  101  A    between atoms: _233  and  _235
REMARK  102  A    between atoms: _235  and  _236
REMARK  103  A    between atoms: _235  and  _238
REMARK  104  A    between atoms: _238  and  _239
REMARK  105  A    between atoms: _242  and  _244
REMARK  106  A    between atoms: _244  and  _245
REMARK  107  A    between atoms: _244  and  _247
REMARK  108  A    between atoms: _247  and  _248
REMARK  109  A    between atoms: _248  and  _249
REMARK  110  A    between atoms: _249  and  _250
REMARK  111  A    between atoms: _259  and  _261
REMARK  112  A    between atoms: _261  and  _262
REMARK  113  A    between atoms: _261  and  _264
REMARK  114  A    between atoms: _264  and  _265
REMARK  115  A    between atoms: _268  and  _270
REMARK  116  A    between atoms: _270  and  _271
REMARK  117  A    between atoms: _270  and  _273
REMARK  118  A    between atoms: _275  and  _277
REMARK  119  A    between atoms: _277  and  _278
REMARK  120  A    between atoms: _277  and  _280
REMARK  121  A    between atoms: _280  and  _281
REMARK  122  A    between atoms: _284  and  _286
REMARK  123  A    between atoms: _286  and  _287
REMARK  124  A    between atoms: _286  and  _289
REMARK  125  A    between atoms: _289  and  _290
REMARK  126  A    between atoms: _290  and  _291
REMARK  127  A    between atoms: _291  and  _292
REMARK  128  A    between atoms: _301  and  _303
REMARK  129  A    between atoms: _303  and  _304
REMARK  130  A    between atoms: _303  and  _306
REMARK  131  A    between atoms: _306  and  _307
REMARK  132  A    between atoms: _307  and  _308
REMARK  133  A    between atoms: _310  and  _312
REMARK  134  A    between atoms: _312  and  _313
REMARK  135  A    between atoms: _312  and  _315
REMARK  136  A    between atoms: _315  and  _316
REMARK  137  A    between atoms: _319  and  _321
REMARK  138  A    between atoms: _321  and  _322
REMARK  139  A    between atoms: _321  and  _324
REMARK  140  A    between atoms: _324  and  _325
REMARK  141  A    between atoms: _331  and  _333
REMARK  142  A    between atoms: _333  and  _334
REMARK  143  A    between atoms: _333  and  _336
REMARK  144  A    between atoms: _336  and  _337
REMARK  145  A    between atoms: _339  and  _341
REMARK  146  A    between atoms: _341  and  _342
REMARK  147  A    between atoms: _341  and  _344
REMARK  148  A    between atoms: _344  and  _345
REMARK  149  A    between atoms: _348  and  _350
REMARK  150  A    between atoms: _350  and  _351
REMARK  151  A    between atoms: _353  and  _355
REMARK  152  A    between atoms: _355  and  _356
REMARK  153  A    between atoms: _355  and  _358
REMARK  154  A    between atoms: _358  and  _359
REMARK  155  A    between atoms: _362  and  _364
REMARK  156  A    between atoms: _364  and  _365
REMARK  157  A    between atoms: _364  and  _367
REMARK  158  A    between atoms: _367  and  _368
REMARK  159  A    between atoms: _368  and  _369
REMARK  160  A    between atoms: _371  and  _373
REMARK  161  A    between atoms: _373  and  _374
REMARK  162  A    between atoms: _373  and  _376
REMARK  163  A    between atoms: _376  and  _377
REMARK  164  A    between atoms: _382  and  _384
REMARK  165  A    between atoms: _384  and  _385
REMARK  166  A    between atoms: _388  and  _390
REMARK  167  A    between atoms: _390  and  _391
REMARK  168  A    between atoms: _393  and  _395
REMARK  169  A    between atoms: _395  and  _396
REMARK  170  A    between atoms: _395  and  _398
REMARK  171  A    between atoms: _398  and  _399
REMARK  172  A    between atoms: _405  and  _407
REMARK  173  A    between atoms: _407  and  _408
REMARK  174  A    between atoms: _410  and  _412
REMARK  175  A    between atoms: _412  and  _413
REMARK  176  A    between atoms: _412  and  _415
REMARK  177  A    between atoms: _415  and  _416
REMARK  178  A    between atoms: _419  and  _421
REMARK  179  A    between atoms: _421  and  _422
REMARK  180  A    between atoms: _421  and  _424
REMARK  181  A    between atoms: _424  and  _425
REMARK  182  A    between atoms: _428  and  _430
REMARK  183  A    between atoms: _430  and  _431
REMARK  184  A    between atoms: _430  and  _433
REMARK  185  A    between atoms: _436  and  _438
REMARK  186  A    between atoms: _438  and  _439
REMARK  187  A    between atoms: _438  and  _441
REMARK  188  A    between atoms: _441  and  _442
REMARK  189  A    between atoms: _445  and  _447
REMARK  190  A    between atoms: _447  and  _448
REMARK  191  A    between atoms: _447  and  _450
REMARK  192  A    between atoms: _450  and  _451
REMARK  193  A    between atoms: _453  and  _455
REMARK  194  A    between atoms: _455  and  _456
REMARK  195  A    between atoms: _455  and  _458
REMARK  196  A    between atoms: _458  and  _459
REMARK  197  A    between atoms: _459  and  _460
REMARK  198  A    between atoms: _460  and  _461
REMARK  199  A    between atoms: _461  and  _462
REMARK  200  A    between atoms: _466  and  _468
REMARK  201  A    between atoms: _468  and  _469
REMARK  202  A    between atoms: _471  and  _473
REMARK  203  A    between atoms: _473  and  _474
REMARK  204  A    between atoms: _477  and  _479
REMARK  205  A    between atoms: _479  and  _480
REMARK  206  A    between atoms: _479  and  _482
REMARK  207  A    between atoms: _482  and  _483
REMARK  208  A    between atoms: _483  and  _484
REMARK  209  A    between atoms: _487  and  _489
REMARK  210  A    between atoms: _489  and  _490
REMARK  211  A    between atoms: _489  and  _492
REMARK  212  A    between atoms: _492  and  _493
REMARK  213  A    between atoms: _493  and  _494
REMARK  214  A    between atoms: _494  and  _495
REMARK  215  A    between atoms: _504  and  _506
REMARK  216  A    between atoms: _506  and  _507
REMARK  217  A    between atoms: _510  and  _512
REMARK  218  A    between atoms: _512  and  _513
REMARK  219  A    between atoms: _512  and  _515
REMARK  220  A    between atoms: _515  and  _516
REMARK  221  A    between atoms: _519  and  _521
REMARK  222  A    between atoms: _521  and  _522
REMARK  223  A    between atoms: _521  and  _524
REMARK  224  A    between atoms: _524  and  _525
REMARK  225  A    between atoms: _528  and  _530
REMARK  226  A    between atoms: _530  and  _531
REMARK  227  A    between atoms: _530  and  _533
REMARK  228  A    between atoms: _533  and  _534
REMARK  229  A    between atoms: _537  and  _539
REMARK  230  A    between atoms: _539  and  _540
REMARK  231  A    between atoms: _539  and  _542
REMARK  232  A    between atoms: _542  and  _543
REMARK  233  A    between atoms: _543  and  _544
REMARK  234  A    between atoms: _544  and  _545
REMARK  235  A    between atoms: _545  and  _546
REMARK  236  A    between atoms: _550  and  _552
REMARK  237  A    between atoms: _552  and  _553
REMARK  238  A    between atoms: _552  and  _555
REMARK  239  A    between atoms: _555  and  _556
REMARK  240  A    between atoms: _559  and  _561
REMARK  241  A    between atoms: _561  and  _562
REMARK  242  A    between atoms: _561  and  _564
REMARK  243  A    between atoms: _564  and  _565
REMARK  244  A    between atoms: _565  and  _566
REMARK  245  A    between atoms: _569  and  _570
REMARK  246  A    between atoms: _575  and  _577
REMARK  247  A    between atoms: _577  and  _578
REMARK  248  A    between atoms: _577  and  _580
REMARK  249  A    between atoms: _580  and  _581
REMARK  250  A    between atoms: _584  and  _586
REMARK  251  A    between atoms: _586  and  _587
REMARK  252  A    between atoms: _586  and  _589
REMARK  253  A    between atoms: _589  and  _590
REMARK  254  A    between atoms: _590  and  _591
REMARK  255  A    between atoms: _591  and  _592
REMARK  256  A    between atoms: _601  and  _603
REMARK  257  A    between atoms: _603  and  _604
REMARK  258  A    between atoms: _603  and  _606
REMARK  259  A    between atoms: _606  and  _607
REMARK  260  A    between atoms: _607  and  _608
REMARK  261  A    between atoms: _610  and  _612
REMARK  262  A    between atoms: _612  and  _613
REMARK  263  A    between atoms: _612  and  _615
REMARK  264  A    between atoms: _615  and  _616
REMARK                            x       y       z     vdW  Elec       q    Type
REMARK                         _______ _______ _______ _____ _____    ______ ____
ROOT
ATOM      1  C   MET A   1      50.774  15.346  88.140  0.00  0.00    +0.238 C 
ATOM      2  O   MET A   1      50.992  14.214  88.603  0.00  0.00    -0.274 OA
ATOM      3  N   LEU A   2      51.181  15.733  86.926  0.00  0.00    -0.298 N 
ATOM      4  H   LEU A   2      51.072  16.731  86.654  0.00  0.00    +0.150 HD
ENDROOT
BRANCH   1   5
ATOM      5  CA  MET A   1      50.038  16.383  88.962  0.00  0.00    +0.146 C 
BRANCH   5   6
ATOM      6  N   MET A   1      50.583  17.702  88.764  0.00  0.00    -0.238 NA
ATOM      7  H   MET A   1      49.984  18.424  88.315  0.00  0.00    +0.142 HD
ENDBRANCH   5   6
BRANCH   5   8
ATOM      8  CB  MET A   1      48.525  16.439  88.618  0.00  0.00    +0.038 C 
BRANCH   8   9
ATOM      9  CG  MET A   1      47.886  15.064  88.554  0.00  0.00    +0.060 C 
BRANCH   9  10
ATOM     10  SD  MET A   1      46.114  15.261  88.296  0.00  0.00    -0.139 S 
ATOM     11  CE  MET A   1      46.112  15.656  86.556  0.00  0.00    +0.069 C 
ENDBRANCH   9  10
ENDBRANCH   8   9
ENDBRANCH   5   8
ENDBRANCH   1   5
BRANCH   3  12
ATOM     12  CA  LEU A   2      51.767  14.812  85.979  0.00  0.00    +0.137 C 
BRANCH  12  13
ATOM     13  C   LEU A   2      53.245  14.580  86.182  0.00  0.00    +0.227 C 
ATOM     14  O   LEU A   2      53.776  13.572  85.693  0.00  0.00    -0.286 OA
ENDBRANCH  12  13
BRANCH  12  15
ATOM     15  CB  LEU A   2      51.524  15.311  84.536  0.00  0.00    +0.028 C 
BRANCH  15  16
ATOM     16  CG  LEU A   2      50.090  15.304  84.070  0.00  0.00    +0.002 C 
ATOM     17  CD2 LEU A   2      49.539  13.863  84.031  0.00  0.00    +0.000 C 
ATOM     18  CD1 LEU A   2      49.966  15.963  82.707  0.00  0.00    +0.000 C 
ENDBRANCH  15  16
ENDBRANCH  12  15
ENDBRANCH   3  12
TORSDOF 9
REMARK  Name = ../refined-set-2016/1fcx/1fcx_pocket.pdb
REMARK  264 active torsions:
REMARK  status: ('A' for Active; 'I' for Inactive)
REMARK    1  A    between atoms: _1  and  _3
REMARK    2  A    between atoms: _3  and  _4
REMARK    3  A    between atoms: _3  and  _6
REMARK    4  A    between atoms: _6  and  _7
REMARK    5  A    between atoms: _10  and  _12
REMARK    6  A    between atoms: _12  and  _13
REMARK    7  A    between atoms: _12  and  _15
REMARK    8  A    between atoms: _15  and  _16
REMARK    9  A    between atoms: _23  and  _24
REMARK   10  A    between atoms: _29  and  _31
REMARK   11  A    between atoms: _31  and  _32
REMARK   12  A    between atoms: _31  and  _34
REMARK   13  A    between atoms: _34  and  _35
REMARK   14  A    between atoms: _38  and  _40
REMARK   15  A    between atoms: _40  and  _41
REMARK   16  A    between atoms: _40  and  _43
REMARK   17  A    between atoms: _43  and  _44
REMARK   18  A    between atoms: _47  and  _49
REMARK   19  A    between atoms: _49  and  _50
REMARK   20  A    between atoms: _49  and  _52
REMARK   21  A    between atoms: _52  and  _53
REMARK   22  A    between atoms: _63  and  _65
REMARK   23  A    between atoms: _65  and  _66
REMARK   24  A    between atoms: _65  and  _68
REMARK   25  A    between atoms: _68  and  _69
REMARK   26  A    between atoms: _69  and  _70
REMARK   27  A    between atoms: _70  and  _71
REMARK   28  A    between atoms: _71  and  _72
REMARK   29  A    between atoms: _76  and  _78
REMARK   30  A    between atoms: _78  and  _79
REMARK   31  A    between atoms: _78  and  _81
REMARK   32  A    between atoms: _81  and  _82
REMARK   33  A    between atoms: _88  and  _90
REMARK   34  A    between atoms: _90  and  _91
REMARK   35  A    between atoms: _90  and  _93
REMARK   36  A    between atoms: _93  and  _94
REMARK   37  A    between atoms: _96  and  _98
REMARK   38  A    between atoms: _98  and  _99
REMARK   39  A    between atoms: _98  and  _101
REMARK   40  A    between atoms: _101  and  _102
REMARK   41  A    between atoms: _102  and  _103
REMARK   42  A    between atoms: _106  and  _108
REMARK   43  A    between atoms: _108  and  _109
REMARK   44  A    between atoms: _108  and  _111
REMARK   45  A    between atoms: _111  and  _112
REMARK   46  A    between atoms: _115  and  _117
REMARK   47  A    between atoms: _117  and  _118
REMARK   48  A    between atoms: _121  and  _123
REMARK   49  A    between atoms: _123  and  _124
REMARK   50  A    between atoms: _123  and  _126
REMARK   51  A    between atoms: _126  and  _127
REMARK   52  A    between atoms: _130  and  _132
REMARK   53  A    between atoms: _132  and  _133
REMARK   54  A    between atoms: _132  and  _135
REMARK   55  A    between atoms: _135  and  _136
REMARK   56  A    between atoms: _136  and  _137
REMARK   57  A    between atoms: _137  and  _138
REMARK   58  A    between atoms: _138  and  _139
REMARK   59  A    between atoms: _143  and  _145
REMARK   60  A    between atoms: _145  and  _146
REMARK   61  A    between atoms: _145  and  _148
REMARK   62  A    between atoms: _150  and  _152
REMARK   63  A    between atoms: _152  and  _153
REMARK   64  A    between atoms: _152  and  _155
REMARK   65  A    between atoms: _155  and  _156
REMARK   66  A    between atoms: _159  and  _161
REMARK   67  A    between atoms: _161  and  _162
REMARK   68  A    between atoms: _161  and  _164
REMARK   69  A    between atoms: _164  and  _165
REMARK   70  A    between atoms: _165  and  _166
REMARK   71  A    between atoms: _166  and  _167
REMARK   72  A    between atoms: _167  and  _168
REMARK   73  A    between atoms: _172  and  _174
REMARK   74  A    between atoms: _174  and  _175
REMARK   75  A    between atoms: _174  and  _177
REMARK   76  A    between atoms: _177  and  _178
REMARK   77  A    between atoms: _181  and  _183
REMARK   78  A    between atoms: _183  and  _184
REMARK   79  A    between atoms: _183  and  _186
REMARK   80  A    between atoms: _188  and  _190
REMARK   81  A    between atoms: _190  and  _191
REMARK   82  A    between atoms: _190  and  _193
REMARK   83  A    between atoms: _193  and  _194
REMARK   84  A    between atoms: _197  and  _199
REMARK   85  A    between atoms: _199  and  _200
REMARK   86  A    between atoms: _199  and  _202
REMARK   87  A    between atoms: _202  and  _203
REMARK   88  A    between atoms: _206  and  _208
REMARK   89  A    between atoms: _208  and  _209
REMARK   90  A    between atoms: _208  and  _211
REMARK   91  A    between atoms: _211  and  _212
REMARK   92  A    between atoms: _215  and  _217
REMARK   93  A    between atoms: _217  and  _218
REMARK   94  A    between atoms: _217  and  _220
REMARK   95  A    between atoms: _220  and  _221
REMARK   96  A    between atoms: _224  and  _226
REMARK   97  A    between atoms: _226  and  _227
REMARK   98  A    between atoms: _226  and  _229
REMARK   99  A    between atoms: _229  and  _230
REMARK  100  A    between atoms: _230  and  _231
REMARK  101  A    between atoms: _233  and  _235
REMARK  102  A    between atoms: _235  and  _236
REMARK  103  A    between atoms: _235  and  _238
REMARK  104  A    between atoms: _238  and  _239
REMARK  105  A    between atoms: _242  and  _244
REMARK  106  A    between atoms: _244  and  _245
REMARK  107  A    between atoms: _244  and  _247
REMARK  108  A    between atoms: _247  and  _248
REMARK  109  A    between atoms: _248  and  _249
REMARK  110  A    between atoms: _249  and  _250
REMARK  111  A    between atoms: _259  and  _261
REMARK  112  A    between atoms: _261  and  _262
REMARK  113  A    between atoms: _261  and  _264
REMARK  114  A    between atoms: _264  and  _265
REMARK  115  A    between atoms: _268  and  _270
REMARK  116  A    between atoms: _270  and  _271
REMARK  117  A    between atoms: _270  and  _273
REMARK  118  A    between atoms: _275  and  _277
REMARK  119  A    between atoms: _277  and  _278
REMARK  120  A    between atoms: _277  and  _280
REMARK  121  A    between atoms: _280  and  _281
REMARK  122  A    between atoms: _284  and  _286
REMARK  123  A    between atoms: _286  and  _287
REMARK  124  A    between atoms: _286  and  _289
REMARK  125  A    between atoms: _289  and  _290
REMARK  126  A    between atoms: _290  and  _291
REMARK  127  A    between atoms: _291  and  _292
REMARK  128  A    between atoms: _301  and  _303
REMARK  129  A    between atoms: _303  and  _304
REMARK  130  A    between atoms: _303  and  _306
REMARK  131  A    between atoms: _306  and  _307
REMARK  132  A    between atoms: _307  and  _308
REMARK  133  A    between atoms: _310  and  _312
REMARK  134  A    between atoms: _312  and  _313
REMARK  135  A    between atoms: _312  and  _315
REMARK  136  A    between atoms: _315  and  _316
REMARK  137  A    between atoms: _319  and  _321
REMARK  138  A    between atoms: _321  and  _322
REMARK  139  A    between atoms: _321  and  _324
REMARK  140  A    between atoms: _324  and  _325
REMARK  141  A    between atoms: _331  and  _333
REMARK  142  A    between atoms: _333  and  _334
REMARK  143  A    between atoms: _333  and  _336
REMARK  144  A    between atoms: _336  and  _337
REMARK  145  A    between atoms: _339  and  _341
REMARK  146  A    between atoms: _341  and  _342
REMARK  147  A    between atoms: _341  and  _344
REMARK  148  A    between atoms: _344  and  _345
REMARK  149  A    between atoms: _348  and  _350
REMARK  150  A    between atoms: _350  and  _351
REMARK  151  A    between atoms: _353  and  _355
REMARK  152  A    between atoms: _355  and  _356
REMARK  153  A    between atoms: _355  and  _358
REMARK  154  A    between atoms: _358  and  _359
REMARK  155  A    between atoms: _362  and  _364
REMARK  156  A    between atoms: _364  and  _365
REMARK  157  A    between atoms: _364  and  _367
REMARK  158  A    between atoms: _367  and  _368
REMARK  159  A    between atoms: _368  and  _369
REMARK  160  A    between atoms: _371  and  _373
REMARK  161  A    between atoms: _373  and  _374
REMARK  162  A    between atoms: _373  and  _376
REMARK  163  A    between atoms: _376  and  _377
REMARK  164  A    between atoms: _382  and  _384
REMARK  165  A    between atoms: _384  and  _385
REMARK  166  A    between atoms: _388  and  _390
REMARK  167  A    between atoms: _390  and  _391
REMARK  168  A    between atoms: _393  and  _395
REMARK  169  A    between atoms: _395  and  _396
REMARK  170  A    between atoms: _395  and  _398
REMARK  171  A    between atoms: _398  and  _399
REMARK  172  A    between atoms: _405  and  _407
REMARK  173  A    between atoms: _407  and  _408
REMARK  174  A    between atoms: _410  and  _412
REMARK  175  A    between atoms: _412  and  _413
REMARK  176  A    between atoms: _412  and  _415
REMARK  177  A    between atoms: _415  and  _416
REMARK  178  A    between atoms: _419  and  _421
REMARK  179  A    between atoms: _421  and  _422
REMARK  180  A    between atoms: _421  and  _424
REMARK  181  A    between atoms: _424  and  _425
REMARK  182  A    between atoms: _428  and  _430
REMARK  183  A    between atoms: _430  and  _431
REMARK  184  A    between atoms: _430  and  _433
REMARK  185  A    between atoms: _436  and  _438
REMARK  186  A    between atoms: _438  and  _439
REMARK  187  A    between atoms: _438  and  _441
REMARK  188  A    between atoms: _441  and  _442
REMARK  189  A    between atoms: _445  and  _447
REMARK  190  A    between atoms: _447  and  _448
REMARK  191  A    between atoms: _447  and  _450
REMARK  192  A    between atoms: _450  and  _451
REMARK  193  A    between atoms: _453  and  _455
REMARK  194  A    between atoms: _455  and  _456
REMARK  195  A    between atoms: _455  and  _458
REMARK  196  A    between atoms: _458  and  _459
REMARK  197  A    between atoms: _459  and  _460
REMARK  198  A    between atoms: _460  and  _461
REMARK  199  A    between atoms: _461  and  _462
REMARK  200  A    between atoms: _466  and  _468
REMARK  201  A    between atoms: _468  and  _469
REMARK  202  A    between atoms: _471  and  _473
REMARK  203  A    between atoms: _473  and  _474
REMARK  204  A    between atoms: _477  and  _479
REMARK  205  A    between atoms: _479  and  _480
REMARK  206  A    between atoms: _479  and  _482
REMARK  207  A    between atoms: _482  and  _483
REMARK  208  A    between atoms: _483  and  _484
REMARK  209  A    between atoms: _487  and  _489
REMARK  210  A    between atoms: _489  and  _490
REMARK  211  A    between atoms: _489  and  _492
REMARK  212  A    between atoms: _492  and  _493
REMARK  213  A    between atoms: _493  and  _494
REMARK  214  A    between atoms: _494  and  _495
REMARK  215  A    between atoms: _504  and  _506
REMARK  216  A    between atoms: _506  and  _507
REMARK  217  A    between atoms: _510  and  _512
REMARK  218  A    between atoms: _512  and  _513
REMARK  219  A    between atoms: _512  and  _515
REMARK  220  A    between atoms: _515  and  _516
REMARK  221  A    between atoms: _519  and  _521
REMARK  222  A    between atoms: _521  and  _522
REMARK  223  A    between atoms: _521  and  _524
REMARK  224  A    between atoms: _524  and  _525
REMARK  225  A    between atoms: _528  and  _530
REMARK  226  A    between atoms: _530  and  _531
REMARK  227  A    between atoms: _530  and  _533
REMARK  228  A    between atoms: _533  and  _534
REMARK  229  A    between atoms: _537  and  _539
REMARK  230  A    between atoms: _539  and  _540
REMARK  231  A    between atoms: _539  and  _542
REMARK  232  A    between atoms: _542  and  _543
REMARK  233  A    between atoms: _543  and  _544
REMARK  234  A    between atoms: _544  and  _545
REMARK  235  A    between atoms: _545  and  _546
REMARK  236  A    between atoms: _550  and  _552
REMARK  237  A    between atoms: _552  and  _553
REMARK  238  A    between atoms: _552  and  _555
REMARK  239  A    between atoms: _555  and  _556
REMARK  240  A    between atoms: _559  and  _561
REMARK  241  A    between atoms: _561  and  _562
REMARK  242  A    between atoms: _561  and  _564
REMARK  243  A    between atoms: _564  and  _565
REMARK  244  A    between atoms: _565  and  _566
REMARK  245  A    between atoms: _569  and  _570
REMARK  246  A    between atoms: _575  and  _577
REMARK  247  A    between atoms: _577  and  _578
REMARK  248  A    between atoms: _577  and  _580
REMARK  249  A    between atoms: _580  and  _581
REMARK  250  A    between atoms: _584  and  _586
REMARK  251  A    between atoms: _586  and  _587
REMARK  252  A    between atoms: _586  and  _589
REMARK  253  A    between atoms: _589  and  _590
REMARK  254  A    between atoms: _590  and  _591
REMARK  255  A    between atoms: _591  and  _592
REMARK  256  A    between atoms: _601  and  _603
REMARK  257  A    between atoms: _603  and  _604
REMARK  258  A    between atoms: _603  and  _606
REMARK  259  A    between atoms: _606  and  _607
REMARK  260  A    between atoms: _607  and  _608
REMARK  261  A    between atoms: _610  and  _612
REMARK  262  A    between atoms: _612  and  _613
REMARK  263  A    between atoms: _612  and  _615
REMARK  264  A    between atoms: _615  and  _616
REMARK                            x       y       z     vdW  Elec       q    Type
REMARK                         _______ _______ _______ _____ _____    ______ ____
ROOT
ATOM      1  O   HOH     1      33.974  19.906  93.095  0.00  0.00    +0.000 OA
ENDROOT
TORSDOF 0
REMARK  Name = ../refined-set-2016/1fcx/1fcx_pocket.pdb
REMARK  264 active torsions:
REMARK  status: ('A' for Active; 'I' for Inactive)
REMARK    1  A    between atoms: _1  and  _3
REMARK    2  A    between atoms: _3  and  _4
REMARK    3  A    between atoms: _3  and  _6
REMARK    4  A    between atoms: _6  and  _7
REMARK    5  A    between atoms: _10  and  _12
REMARK    6  A    between atoms: _12  and  _13
REMARK    7  A    between atoms: _12  and  _15
REMARK    8  A    between atoms: _15  and  _16
REMARK    9  A    between atoms: _23  and  _24
REMARK   10  A    between atoms: _29  and  _31
REMARK   11  A    between atoms: _31  and  _32
REMARK   12  A    between atoms: _31  and  _34
REMARK   13  A    between atoms: _34  and  _35
REMARK   14  A    between atoms: _38  and  _40
REMARK   15  A    between atoms: _40  and  _41
REMARK   16  A    between atoms: _40  and  _43
REMARK   17  A    between atoms: _43  and  _44
REMARK   18  A    between atoms: _47  and  _49
REMARK   19  A    between atoms: _49  and  _50
REMARK   20  A    between atoms: _49  and  _52
REMARK   21  A    between atoms: _52  and  _53
REMARK   22  A    between atoms: _63  and  _65
REMARK   23  A    between atoms: _65  and  _66
REMARK   24  A    between atoms: _65  and  _68
REMARK   25  A    between atoms: _68  and  _69
REMARK   26  A    between atoms: _69  and  _70
REMARK   27  A    between atoms: _70  and  _71
REMARK   28  A    between atoms: _71  and  _72
REMARK   29  A    between atoms: _76  and  _78
REMARK   30  A    between atoms: _78  and  _79
REMARK   31  A    between atoms: _78  and  _81
REMARK   32  A    between atoms: _81  and  _82
REMARK   33  A    between atoms: _88  and  _90
REMARK   34  A    between atoms: _90  and  _91
REMARK   35  A    between atoms: _90  and  _93
REMARK   36  A    between atoms: _93  and  _94
REMARK   37  A    between atoms: _96  and  _98
REMARK   38  A    between atoms: _98  and  _99
REMARK   39  A    between atoms: _98  and  _101
REMARK   40  A    between atoms: _101  and  _102
REMARK   41  A    between atoms: _102  and  _103
REMARK   42  A    between atoms: _106  and  _108
REMARK   43  A    between atoms: _108  and  _109
REMARK   44  A    between atoms: _108  and  _111
REMARK   45  A    between atoms: _111  and  _112
REMARK   46  A    between atoms: _115  and  _117
REMARK   47  A    between atoms: _117  and  _118
REMARK   48  A    between atoms: _121  and  _123
REMARK   49  A    between atoms: _123  and  _124
REMARK   50  A    between atoms: _123  and  _126
REMARK   51  A    between atoms: _126  and  _127
REMARK   52  A    between atoms: _130  and  _132
REMARK   53  A    between atoms: _132  and  _133
REMARK   54  A    between atoms: _132  and  _135
REMARK   55  A    between atoms: _135  and  _136
REMARK   56  A    between atoms: _136  and  _137
REMARK   57  A    between atoms: _137  and  _138
REMARK   58  A    between atoms: _138  and  _139
REMARK   59  A    between atoms: _143  and  _145
REMARK   60  A    between atoms: _145  and  _146
REMARK   61  A    between atoms: _145  and  _148
REMARK   62  A    between atoms: _150  and  _152
REMARK   63  A    between atoms: _152  and  _153
REMARK   64  A    between atoms: _152  and  _155
REMARK   65  A    between atoms: _155  and  _156
REMARK   66  A    between atoms: _159  and  _161
REMARK   67  A    between atoms: _161  and  _162
REMARK   68  A    between atoms: _161  and  _164
REMARK   69  A    between atoms: _164  and  _165
REMARK   70  A    between atoms: _165  and  _166
REMARK   71  A    between atoms: _166  and  _167
REMARK   72  A    between atoms: _167  and  _168
REMARK   73  A    between atoms: _172  and  _174
REMARK   74  A    between atoms: _174  and  _175
REMARK   75  A    between atoms: _174  and  _177
REMARK   76  A    between atoms: _177  and  _178
REMARK   77  A    between atoms: _181  and  _183
REMARK   78  A    between atoms: _183  and  _184
REMARK   79  A    between atoms: _183  and  _186
REMARK   80  A    between atoms: _188  and  _190
REMARK   81  A    between atoms: _190  and  _191
REMARK   82  A    between atoms: _190  and  _193
REMARK   83  A    between atoms: _193  and  _194
REMARK   84  A    between atoms: _197  and  _199
REMARK   85  A    between atoms: _199  and  _200
REMARK   86  A    between atoms: _199  and  _202
REMARK   87  A    between atoms: _202  and  _203
REMARK   88  A    between atoms: _206  and  _208
REMARK   89  A    between atoms: _208  and  _209
REMARK   90  A    between atoms: _208  and  _211
REMARK   91  A    between atoms: _211  and  _212
REMARK   92  A    between atoms: _215  and  _217
REMARK   93  A    between atoms: _217  and  _218
REMARK   94  A    between atoms: _217  and  _220
REMARK   95  A    between atoms: _220  and  _221
REMARK   96  A    between atoms: _224  and  _226
REMARK   97  A    between atoms: _226  and  _227
REMARK   98  A    between atoms: _226  and  _229
REMARK   99  A    between atoms: _229  and  _230
REMARK  100  A    between atoms: _230  and  _231
REMARK  101  A    between atoms: _233  and  _235
REMARK  102  A    between atoms: _235  and  _236
REMARK  103  A    between atoms: _235  and  _238
REMARK  104  A    between atoms: _238  and  _239
REMARK  105  A    between atoms: _242  and  _244
REMARK  106  A    between atoms: _244  and  _245
REMARK  107  A    between atoms: _244  and  _247
REMARK  108  A    between atoms: _247  and  _248
REMARK  109  A    between atoms: _248  and  _249
REMARK  110  A    between atoms: _249  and  _250
REMARK  111  A    between atoms: _259  and  _261
REMARK  112  A    between atoms: _261  and  _262
REMARK  113  A    between atoms: _261  and  _264
REMARK  114  A    between atoms: _264  and  _265
REMARK  115  A    between atoms: _268  and  _270
REMARK  116  A    between atoms: _270  and  _271
REMARK  117  A    between atoms: _270  and  _273
REMARK  118  A    between atoms: _275  and  _277
REMARK  119  A    between atoms: _277  and  _278
REMARK  120  A    between atoms: _277  and  _280
REMARK  121  A    between atoms: _280  and  _281
REMARK  122  A    between atoms: _284  and  _286
REMARK  123  A    between atoms: _286  and  _287
REMARK  124  A    between atoms: _286  and  _289
REMARK  125  A    between atoms: _289  and  _290
REMARK  126  A    between atoms: _290  and  _291
REMARK  127  A    between atoms: _291  and  _292
REMARK  128  A    between atoms: _301  and  _303
REMARK  129  A    between atoms: _303  and  _304
REMARK  130  A    between atoms: _303  and  _306
REMARK  131  A    between atoms: _306  and  _307
REMARK  132  A    between atoms: _307  and  _308
REMARK  133  A    between atoms: _310  and  _312
REMARK  134  A    between atoms: _312  and  _313
REMARK  135  A    between atoms: _312  and  _315
REMARK  136  A    between atoms: _315  and  _316
REMARK  137  A    between atoms: _319  and  _321
REMARK  138  A    between atoms: _321  and  _322
REMARK  139  A    between atoms: _321  and  _324
REMARK  140  A    between atoms: _324  and  _325
REMARK  141  A    between atoms: _331  and  _333
REMARK  142  A    between atoms: _333  and  _334
REMARK  143  A    between atoms: _333  and  _336
REMARK  144  A    between atoms: _336  and  _337
REMARK  145  A    between atoms: _339  and  _341
REMARK  146  A    between atoms: _341  and  _342
REMARK  147  A    between atoms: _341  and  _344
REMARK  148  A    between atoms: _344  and  _345
REMARK  149  A    between atoms: _348  and  _350
REMARK  150  A    between atoms: _350  and  _351
REMARK  151  A    between atoms: _353  and  _355
REMARK  152  A    between atoms: _355  and  _356
REMARK  153  A    between atoms: _355  and  _358
REMARK  154  A    between atoms: _358  and  _359
REMARK  155  A    between atoms: _362  and  _364
REMARK  156  A    between atoms: _364  and  _365
REMARK  157  A    between atoms: _364  and  _367
REMARK  158  A    between atoms: _367  and  _368
REMARK  159  A    between atoms: _368  and  _369
REMARK  160  A    between atoms: _371  and  _373
REMARK  161  A    between atoms: _373  and  _374
REMARK  162  A    between atoms: _373  and  _376
REMARK  163  A    between atoms: _376  and  _377
REMARK  164  A    between atoms: _382  and  _384
REMARK  165  A    between atoms: _384  and  _385
REMARK  166  A    between atoms: _388  and  _390
REMARK  167  A    between atoms: _390  and  _391
REMARK  168  A    between atoms: _393  and  _395
REMARK  169  A    between atoms: _395  and  _396
REMARK  170  A    between atoms: _395  and  _398
REMARK  171  A    between atoms: _398  and  _399
REMARK  172  A    between atoms: _405  and  _407
REMARK  173  A    between atoms: _407  and  _408
REMARK  174  A    between atoms: _410  and  _412
REMARK  175  A    between atoms: _412  and  _413
REMARK  176  A    between atoms: _412  and  _415
REMARK  177  A    between atoms: _415  and  _416
REMARK  178  A    between atoms: _419  and  _421
REMARK  179  A    between atoms: _421  and  _422
REMARK  180  A    between atoms: _421  and  _424
REMARK  181  A    between atoms: _424  and  _425
REMARK  182  A    between atoms: _428  and  _430
REMARK  183  A    between atoms: _430  and  _431
REMARK  184  A    between atoms: _430  and  _433
REMARK  185  A    between atoms: _436  and  _438
REMARK  186  A    between atoms: _438  and  _439
REMARK  187  A    between atoms: _438  and  _441
REMARK  188  A    between atoms: _441  and  _442
REMARK  189  A    between atoms: _445  and  _447
REMARK  190  A    between atoms: _447  and  _448
REMARK  191  A    between atoms: _447  and  _450
REMARK  192  A    between atoms: _450  and  _451
REMARK  193  A    between atoms: _453  and  _455
REMARK  194  A    between atoms: _455  and  _456
REMARK  195  A    between atoms: _455  and  _458
REMARK  196  A    between atoms: _458  and  _459
REMARK  197  A    between atoms: _459  and  _460
REMARK  198  A    between atoms: _460  and  _461
REMARK  199  A    between atoms: _461  and  _462
REMARK  200  A    between atoms: _466  and  _468
REMARK  201  A    between atoms: _468  and  _469
REMARK  202  A    between atoms: _471  and  _473
REMARK  203  A    between atoms: _473  and  _474
REMARK  204  A    between atoms: _477  and  _479
REMARK  205  A    between atoms: _479  and  _480
REMARK  206  A    between atoms: _479  and  _482
REMARK  207  A    between atoms: _482  and  _483
REMARK  208  A    between atoms: _483  and  _484
REMARK  209  A    between atoms: _487  and  _489
REMARK  210  A    between atoms: _489  and  _490
REMARK  211  A    between atoms: _489  and  _492
REMARK  212  A    between atoms: _492  and  _493
REMARK  213  A    between atoms: _493  and  _494
REMARK  214  A    between atoms: _494  and  _495
REMARK  215  A    between atoms: _504  and  _506
REMARK  216  A    between atoms: _506  and  _507
REMARK  217  A    between atoms: _510  and  _512
REMARK  218  A    between atoms: _512  and  _513
REMARK  219  A    between atoms: _512  and  _515
REMARK  220  A    between atoms: _515  and  _516
REMARK  221  A    between atoms: _519  and  _521
REMARK  222  A    between atoms: _521  and  _522
REMARK  223  A    between atoms: _521  and  _524
REMARK  224  A    between atoms: _524  and  _525
REMARK  225  A    between atoms: _528  and  _530
REMARK  226  A    between atoms: _530  and  _531
REMARK  227  A    between atoms: _530  and  _533
REMARK  228  A    between atoms: _533  and  _534
REMARK  229  A    between atoms: _537  and  _539
REMARK  230  A    between atoms: _539  and  _540
REMARK  231  A    between atoms: _539  and  _542
REMARK  232  A    between atoms: _542  and  _543
REMARK  233  A    between atoms: _543  and  _544
REMARK  234  A    between atoms: _544  and  _545
REMARK  235  A    between atoms: _545  and  _546
REMARK  236  A    between atoms: _550  and  _552
REMARK  237  A    between atoms: _552  and  _553
REMARK  238  A    between atoms: _552  and  _555
REMARK  239  A    between atoms: _555  and  _556
REMARK  240  A    between atoms: _559  and  _561
REMARK  241  A    between atoms: _561  and  _562
REMARK  242  A    between atoms: _561  and  _564
REMARK  243  A    between atoms: _564  and  _565
REMARK  244  A    between atoms: _565  and  _566
REMARK  245  A    between atoms: _569  and  _570
REMARK  246  A    between atoms: _575  and  _577
REMARK  247  A    between atoms: _577  and  _578
REMARK  248  A    between atoms: _577  and  _580
REMARK  249  A    between atoms: _580  and  _581
REMARK  250  A    between atoms: _584  and  _586
REMARK  251  A    between atoms: _586  and  _587
REMARK  252  A    between atoms: _586  and  _589
REMARK  253  A    between atoms: _589  and  _590
REMARK  254  A    between atoms: _590  and  _591
REMARK  255  A    between atoms: _591  and  _592
REMARK  256  A    between atoms: _601  and  _603
REMARK  257  A    between atoms: _603  and  _604
REMARK  258  A    between atoms: _603  and  _606
REMARK  259  A    between atoms: _606  and  _607
REMARK  260  A    between atoms: _607  and  _608
REMARK  261  A    between atoms: _610  and  _612
REMARK  262  A    between atoms: _612  and  _613
REMARK  263  A    between atoms: _612  and  _615
REMARK  264  A    between atoms: _615  and  _616
REMARK                            x       y       z     vdW  Elec       q    Type
REMARK                         _______ _______ _______ _____ _____    ______ ____
ROOT
ATOM      1  O   HOH     1      45.909   6.197  76.853  0.00  0.00    +0.000 OA
ENDROOT
TORSDOF 0
REMARK  Name = ../refined-set-2016/1fcx/1fcx_pocket.pdb
REMARK  264 active torsions:
REMARK  status: ('A' for Active; 'I' for Inactive)
REMARK    1  A    between atoms: _1  and  _3
REMARK    2  A    between atoms: _3  and  _4
REMARK    3  A    between atoms: _3  and  _6
REMARK    4  A    between atoms: _6  and  _7
REMARK    5  A    between atoms: _10  and  _12
REMARK    6  A    between atoms: _12  and  _13
REMARK    7  A    between atoms: _12  and  _15
REMARK    8  A    between atoms: _15  and  _16
REMARK    9  A    between atoms: _23  and  _24
REMARK   10  A    between atoms: _29  and  _31
REMARK   11  A    between atoms: _31  and  _32
REMARK   12  A    between atoms: _31  and  _34
REMARK   13  A    between atoms: _34  and  _35
REMARK   14  A    between atoms: _38  and  _40
REMARK   15  A    between atoms: _40  and  _41
REMARK   16  A    between atoms: _40  and  _43
REMARK   17  A    between atoms: _43  and  _44
REMARK   18  A    between atoms: _47  and  _49
REMARK   19  A    between atoms: _49  and  _50
REMARK   20  A    between atoms: _49  and  _52
REMARK   21  A    between atoms: _52  and  _53
REMARK   22  A    between atoms: _63  and  _65
REMARK   23  A    between atoms: _65  and  _66
REMARK   24  A    between atoms: _65  and  _68
REMARK   25  A    between atoms: _68  and  _69
REMARK   26  A    between atoms: _69  and  _70
REMARK   27  A    between atoms: _70  and  _71
REMARK   28  A    between atoms: _71  and  _72
REMARK   29  A    between atoms: _76  and  _78
REMARK   30  A    between atoms: _78  and  _79
REMARK   31  A    between atoms: _78  and  _81
REMARK   32  A    between atoms: _81  and  _82
REMARK   33  A    between atoms: _88  and  _90
REMARK   34  A    between atoms: _90  and  _91
REMARK   35  A    between atoms: _90  and  _93
REMARK   36  A    between atoms: _93  and  _94
REMARK   37  A    between atoms: _96  and  _98
REMARK   38  A    between atoms: _98  and  _99
REMARK   39  A    between atoms: _98  and  _101
REMARK   40  A    between atoms: _101  and  _102
REMARK   41  A    between atoms: _102  and  _103
REMARK   42  A    between atoms: _106  and  _108
REMARK   43  A    between atoms: _108  and  _109
REMARK   44  A    between atoms: _108  and  _111
REMARK   45  A    between atoms: _111  and  _112
REMARK   46  A    between atoms: _115  and  _117
REMARK   47  A    between atoms: _117  and  _118
REMARK   48  A    between atoms: _121  and  _123
REMARK   49  A    between atoms: _123  and  _124
REMARK   50  A    between atoms: _123  and  _126
REMARK   51  A    between atoms: _126  and  _127
REMARK   52  A    between atoms: _130  and  _132
REMARK   53  A    between atoms: _132  and  _133
REMARK   54  A    between atoms: _132  and  _135
REMARK   55  A    between atoms: _135  and  _136
REMARK   56  A    between atoms: _136  and  _137
REMARK   57  A    between atoms: _137  and  _138
REMARK   58  A    between atoms: _138  and  _139
REMARK   59  A    between atoms: _143  and  _145
REMARK   60  A    between atoms: _145  and  _146
REMARK   61  A    between atoms: _145  and  _148
REMARK   62  A    between atoms: _150  and  _152
REMARK   63  A    between atoms: _152  and  _153
REMARK   64  A    between atoms: _152  and  _155
REMARK   65  A    between atoms: _155  and  _156
REMARK   66  A    between atoms: _159  and  _161
REMARK   67  A    between atoms: _161  and  _162
REMARK   68  A    between atoms: _161  and  _164
REMARK   69  A    between atoms: _164  and  _165
REMARK   70  A    between atoms: _165  and  _166
REMARK   71  A    between atoms: _166  and  _167
REMARK   72  A    between atoms: _167  and  _168
REMARK   73  A    between atoms: _172  and  _174
REMARK   74  A    between atoms: _174  and  _175
REMARK   75  A    between atoms: _174  and  _177
REMARK   76  A    between atoms: _177  and  _178
REMARK   77  A    between atoms: _181  and  _183
REMARK   78  A    between atoms: _183  and  _184
REMARK   79  A    between atoms: _183  and  _186
REMARK   80  A    between atoms: _188  and  _190
REMARK   81  A    between atoms: _190  and  _191
REMARK   82  A    between atoms: _190  and  _193
REMARK   83  A    between atoms: _193  and  _194
REMARK   84  A    between atoms: _197  and  _199
REMARK   85  A    between atoms: _199  and  _200
REMARK   86  A    between atoms: _199  and  _202
REMARK   87  A    between atoms: _202  and  _203
REMARK   88  A    between atoms: _206  and  _208
REMARK   89  A    between atoms: _208  and  _209
REMARK   90  A    between atoms: _208  and  _211
REMARK   91  A    between atoms: _211  and  _212
REMARK   92  A    between atoms: _215  and  _217
REMARK   93  A    between atoms: _217  and  _218
REMARK   94  A    between atoms: _217  and  _220
REMARK   95  A    between atoms: _220  and  _221
REMARK   96  A    between atoms: _224  and  _226
REMARK   97  A    between atoms: _226  and  _227
REMARK   98  A    between atoms: _226  and  _229
REMARK   99  A    between atoms: _229  and  _230
REMARK  100  A    between atoms: _230  and  _231
REMARK  101  A    between atoms: _233  and  _235
REMARK  102  A    between atoms: _235  and  _236
REMARK  103  A    between atoms: _235  and  _238
REMARK  104  A    between atoms: _238  and  _239
REMARK  105  A    between atoms: _242  and  _244
REMARK  106  A    between atoms: _244  and  _245
REMARK  107  A    between atoms: _244  and  _247
REMARK  108  A    between atoms: _247  and  _248
REMARK  109  A    between atoms: _248  and  _249
REMARK  110  A    between atoms: _249  and  _250
REMARK  111  A    between atoms: _259  and  _261
REMARK  112  A    between atoms: _261  and  _262
REMARK  113  A    between atoms: _261  and  _264
REMARK  114  A    between atoms: _264  and  _265
REMARK  115  A    between atoms: _268  and  _270
REMARK  116  A    between atoms: _270  and  _271
REMARK  117  A    between atoms: _270  and  _273
REMARK  118  A    between atoms: _275  and  _277
REMARK  119  A    between atoms: _277  and  _278
REMARK  120  A    between atoms: _277  and  _280
REMARK  121  A    between atoms: _280  and  _281
REMARK  122  A    between atoms: _284  and  _286
REMARK  123  A    between atoms: _286  and  _287
REMARK  124  A    between atoms: _286  and  _289
REMARK  125  A    between atoms: _289  and  _290
REMARK  126  A    between atoms: _290  and  _291
REMARK  127  A    between atoms: _291  and  _292
REMARK  128  A    between atoms: _301  and  _303
REMARK  129  A    between atoms: _303  and  _304
REMARK  130  A    between atoms: _303  and  _306
REMARK  131  A    between atoms: _306  and  _307
REMARK  132  A    between atoms: _307  and  _308
REMARK  133  A    between atoms: _310  and  _312
REMARK  134  A    between atoms: _312  and  _313
REMARK  135  A    between atoms: _312  and  _315
REMARK  136  A    between atoms: _315  and  _316
REMARK  137  A    between atoms: _319  and  _321
REMARK  138  A    between atoms: _321  and  _322
REMARK  139  A    between atoms: _321  and  _324
REMARK  140  A    between atoms: _324  and  _325
REMARK  141  A    between atoms: _331  and  _333
REMARK  142  A    between atoms: _333  and  _334
REMARK  143  A    between atoms: _333  and  _336
REMARK  144  A    between atoms: _336  and  _337
REMARK  145  A    between atoms: _339  and  _341
REMARK  146  A    between atoms: _341  and  _342
REMARK  147  A    between atoms: _341  and  _344
REMARK  148  A    between atoms: _344  and  _345
REMARK  149  A    between atoms: _348  and  _350
REMARK  150  A    between atoms: _350  and  _351
REMARK  151  A    between atoms: _353  and  _355
REMARK  152  A    between atoms: _355  and  _356
REMARK  153  A    between atoms: _355  and  _358
REMARK  154  A    between atoms: _358  and  _359
REMARK  155  A    between atoms: _362  and  _364
REMARK  156  A    between atoms: _364  and  _365
REMARK  157  A    between atoms: _364  and  _367
REMARK  158  A    between atoms: _367  and  _368
REMARK  159  A    between atoms: _368  and  _369
REMARK  160  A    between atoms: _371  and  _373
REMARK  161  A    between atoms: _373  and  _374
REMARK  162  A    between atoms: _373  and  _376
REMARK  163  A    between atoms: _376  and  _377
REMARK  164  A    between atoms: _382  and  _384
REMARK  165  A    between atoms: _384  and  _385
REMARK  166  A    between atoms: _388  and  _390
REMARK  167  A    between atoms: _390  and  _391
REMARK  168  A    between atoms: _393  and  _395
REMARK  169  A    between atoms: _395  and  _396
REMARK  170  A    between atoms: _395  and  _398
REMARK  171  A    between atoms: _398  and  _399
REMARK  172  A    between atoms: _405  and  _407
REMARK  173  A    between atoms: _407  and  _408
REMARK  174  A    between atoms: _410  and  _412
REMARK  175  A    between atoms: _412  and  _413
REMARK  176  A    between atoms: _412  and  _415
REMARK  177  A    between atoms: _415  and  _416
REMARK  178  A    between atoms: _419  and  _421
REMARK  179  A    between atoms: _421  and  _422
REMARK  180  A    between atoms: _421  and  _424
REMARK  181  A    between atoms: _424  and  _425
REMARK  182  A    between atoms: _428  and  _430
REMARK  183  A    between atoms: _430  and  _431
REMARK  184  A    between atoms: _430  and  _433
REMARK  185  A    between atoms: _436  and  _438
REMARK  186  A    between atoms: _438  and  _439
REMARK  187  A    between atoms: _438  and  _441
REMARK  188  A    between atoms: _441  and  _442
REMARK  189  A    between atoms: _445  and  _447
REMARK  190  A    between atoms: _447  and  _448
REMARK  191  A    between atoms: _447  and  _450
REMARK  192  A    between atoms: _450  and  _451
REMARK  193  A    between atoms: _453  and  _455
REMARK  194  A    between atoms: _455  and  _456
REMARK  195  A    between atoms: _455  and  _458
REMARK  196  A    between atoms: _458  and  _459
REMARK  197  A    between atoms: _459  and  _460
REMARK  198  A    between atoms: _460  and  _461
REMARK  199  A    between atoms: _461  and  _462
REMARK  200  A    between atoms: _466  and  _468
REMARK  201  A    between atoms: _468  and  _469
REMARK  202  A    between atoms: _471  and  _473
REMARK  203  A    between atoms: _473  and  _474
REMARK  204  A    between atoms: _477  and  _479
REMARK  205  A    between atoms: _479  and  _480
REMARK  206  A    between atoms: _479  and  _482
REMARK  207  A    between atoms: _482  and  _483
REMARK  208  A    between atoms: _483  and  _484
REMARK  209  A    between atoms: _487  and  _489
REMARK  210  A    between atoms: _489  and  _490
REMARK  211  A    between atoms: _489  and  _492
REMARK  212  A    between atoms: _492  and  _493
REMARK  213  A    between atoms: _493  and  _494
REMARK  214  A    between atoms: _494  and  _495
REMARK  215  A    between atoms: _504  and  _506
REMARK  216  A    between atoms: _506  and  _507
REMARK  217  A    between atoms: _510  and  _512
REMARK  218  A    between atoms: _512  and  _513
REMARK  219  A    between atoms: _512  and  _515
REMARK  220  A    between atoms: _515  and  _516
REMARK  221  A    between atoms: _519  and  _521
REMARK  222  A    between atoms: _521  and  _522
REMARK  223  A    between atoms: _521  and  _524
REMARK  224  A    between atoms: _524  and  _525
REMARK  225  A    between atoms: _528  and  _530
REMARK  226  A    between atoms: _530  and  _531
REMARK  227  A    between atoms: _530  and  _533
REMARK  228  A    between atoms: _533  and  _534
REMARK  229  A    between atoms: _537  and  _539
REMARK  230  A    between atoms: _539  and  _540
REMARK  231  A    between atoms: _539  and  _542
REMARK  232  A    between atoms: _542  and  _543
REMARK  233  A    between atoms: _543  and  _544
REMARK  234  A    between atoms: _544  and  _545
REMARK  235  A    between atoms: _545  and  _546
REMARK  236  A    between atoms: _550  and  _552
REMARK  237  A    between atoms: _552  and  _553
REMARK  238  A    between atoms: _552  and  _555
REMARK  239  A    between atoms: _555  and  _556
REMARK  240  A    between atoms: _559  and  _561
REMARK  241  A    between atoms: _561  and  _562
REMARK  242  A    between atoms: _561  and  _564
REMARK  243  A    between atoms: _564  and  _565
REMARK  244  A    between atoms: _565  and  _566
REMARK  245  A    between atoms: _569  and  _570
REMARK  246  A    between atoms: _575  and  _577
REMARK  247  A    between atoms: _577  and  _578
REMARK  248  A    between atoms: _577  and  _580
REMARK  249  A    between atoms: _580  and  _581
REMARK  250  A    between atoms: _584  and  _586
REMARK  251  A    between atoms: _586  and  _587
REMARK  252  A    between atoms: _586  and  _589
REMARK  253  A    between atoms: _589  and  _590
REMARK  254  A    between atoms: _590  and  _591
REMARK  255  A    between atoms: _591  and  _592
REMARK  256  A    between atoms: _601  and  _603
REMARK  257  A    between atoms: _603  and  _604
REMARK  258  A    between atoms: _603  and  _606
REMARK  259  A    between atoms: _606  and  _607
REMARK  260  A    between atoms: _607  and  _608
REMARK  261  A    between atoms: _610  and  _612
REMARK  262  A    between atoms: _612  and  _613
REMARK  263  A    between atoms: _612  and  _615
REMARK  264  A    between atoms: _615  and  _616
REMARK                            x       y       z     vdW  Elec       q    Type
REMARK                         _______ _______ _______ _____ _____    ______ ____
ROOT
ATOM      1  O   HOH     1      35.788  21.489  91.231  0.00  0.00    +0.000 OA
ENDROOT
TORSDOF 0
REMARK  Name = ../refined-set-2016/1fcx/1fcx_pocket.pdb
REMARK  264 active torsions:
REMARK  status: ('A' for Active; 'I' for Inactive)
REMARK    1  A    between atoms: _1  and  _3
REMARK    2  A    between atoms: _3  and  _4
REMARK    3  A    between atoms: _3  and  _6
REMARK    4  A    between atoms: _6  and  _7
REMARK    5  A    between atoms: _10  and  _12
REMARK    6  A    between atoms: _12  and  _13
REMARK    7  A    between atoms: _12  and  _15
REMARK    8  A    between atoms: _15  and  _16
REMARK    9  A    between atoms: _23  and  _24
REMARK   10  A    between atoms: _29  and  _31
REMARK   11  A    between atoms: _31  and  _32
REMARK   12  A    between atoms: _31  and  _34
REMARK   13  A    between atoms: _34  and  _35
REMARK   14  A    between atoms: _38  and  _40
REMARK   15  A    between atoms: _40  and  _41
REMARK   16  A    between atoms: _40  and  _43
REMARK   17  A    between atoms: _43  and  _44
REMARK   18  A    between atoms: _47  and  _49
REMARK   19  A    between atoms: _49  and  _50
REMARK   20  A    between atoms: _49  and  _52
REMARK   21  A    between atoms: _52  and  _53
REMARK   22  A    between atoms: _63  and  _65
REMARK   23  A    between atoms: _65  and  _66
REMARK   24  A    between atoms: _65  and  _68
REMARK   25  A    between atoms: _68  and  _69
REMARK   26  A    between atoms: _69  and  _70
REMARK   27  A    between atoms: _70  and  _71
REMARK   28  A    between atoms: _71  and  _72
REMARK   29  A    between atoms: _76  and  _78
REMARK   30  A    between atoms: _78  and  _79
REMARK   31  A    between atoms: _78  and  _81
REMARK   32  A    between atoms: _81  and  _82
REMARK   33  A    between atoms: _88  and  _90
REMARK   34  A    between atoms: _90  and  _91
REMARK   35  A    between atoms: _90  and  _93
REMARK   36  A    between atoms: _93  and  _94
REMARK   37  A    between atoms: _96  and  _98
REMARK   38  A    between atoms: _98  and  _99
REMARK   39  A    between atoms: _98  and  _101
REMARK   40  A    between atoms: _101  and  _102
REMARK   41  A    between atoms: _102  and  _103
REMARK   42  A    between atoms: _106  and  _108
REMARK   43  A    between atoms: _108  and  _109
REMARK   44  A    between atoms: _108  and  _111
REMARK   45  A    between atoms: _111  and  _112
REMARK   46  A    between atoms: _115  and  _117
REMARK   47  A    between atoms: _117  and  _118
REMARK   48  A    between atoms: _121  and  _123
REMARK   49  A    between atoms: _123  and  _124
REMARK   50  A    between atoms: _123  and  _126
REMARK   51  A    between atoms: _126  and  _127
REMARK   52  A    between atoms: _130  and  _132
REMARK   53  A    between atoms: _132  and  _133
REMARK   54  A    between atoms: _132  and  _135
REMARK   55  A    between atoms: _135  and  _136
REMARK   56  A    between atoms: _136  and  _137
REMARK   57  A    between atoms: _137  and  _138
REMARK   58  A    between atoms: _138  and  _139
REMARK   59  A    between atoms: _143  and  _145
REMARK   60  A    between atoms: _145  and  _146
REMARK   61  A    between atoms: _145  and  _148
REMARK   62  A    between atoms: _150  and  _152
REMARK   63  A    between atoms: _152  and  _153
REMARK   64  A    between atoms: _152  and  _155
REMARK   65  A    between atoms: _155  and  _156
REMARK   66  A    between atoms: _159  and  _161
REMARK   67  A    between atoms: _161  and  _162
REMARK   68  A    between atoms: _161  and  _164
REMARK   69  A    between atoms: _164  and  _165
REMARK   70  A    between atoms: _165  and  _166
REMARK   71  A    between atoms: _166  and  _167
REMARK   72  A    between atoms: _167  and  _168
REMARK   73  A    between atoms: _172  and  _174
REMARK   74  A    between atoms: _174  and  _175
REMARK   75  A    between atoms: _174  and  _177
REMARK   76  A    between atoms: _177  and  _178
REMARK   77  A    between atoms: _181  and  _183
REMARK   78  A    between atoms: _183  and  _184
REMARK   79  A    between atoms: _183  and  _186
REMARK   80  A    between atoms: _188  and  _190
REMARK   81  A    between atoms: _190  and  _191
REMARK   82  A    between atoms: _190  and  _193
REMARK   83  A    between atoms: _193  and  _194
REMARK   84  A    between atoms: _197  and  _199
REMARK   85  A    between atoms: _199  and  _200
REMARK   86  A    between atoms: _199  and  _202
REMARK   87  A    between atoms: _202  and  _203
REMARK   88  A    between atoms: _206  and  _208
REMARK   89  A    between atoms: _208  and  _209
REMARK   90  A    between atoms: _208  and  _211
REMARK   91  A    between atoms: _211  and  _212
REMARK   92  A    between atoms: _215  and  _217
REMARK   93  A    between atoms: _217  and  _218
REMARK   94  A    between atoms: _217  and  _220
REMARK   95  A    between atoms: _220  and  _221
REMARK   96  A    between atoms: _224  and  _226
REMARK   97  A    between atoms: _226  and  _227
REMARK   98  A    between atoms: _226  and  _229
REMARK   99  A    between atoms: _229  and  _230
REMARK  100  A    between atoms: _230  and  _231
REMARK  101  A    between atoms: _233  and  _235
REMARK  102  A    between atoms: _235  and  _236
REMARK  103  A    between atoms: _235  and  _238
REMARK  104  A    between atoms: _238  and  _239
REMARK  105  A    between atoms: _242  and  _244
REMARK  106  A    between atoms: _244  and  _245
REMARK  107  A    between atoms: _244  and  _247
REMARK  108  A    between atoms: _247  and  _248
REMARK  109  A    between atoms: _248  and  _249
REMARK  110  A    between atoms: _249  and  _250
REMARK  111  A    between atoms: _259  and  _261
REMARK  112  A    between atoms: _261  and  _262
REMARK  113  A    between atoms: _261  and  _264
REMARK  114  A    between atoms: _264  and  _265
REMARK  115  A    between atoms: _268  and  _270
REMARK  116  A    between atoms: _270  and  _271
REMARK  117  A    between atoms: _270  and  _273
REMARK  118  A    between atoms: _275  and  _277
REMARK  119  A    between atoms: _277  and  _278
REMARK  120  A    between atoms: _277  and  _280
REMARK  121  A    between atoms: _280  and  _281
REMARK  122  A    between atoms: _284  and  _286
REMARK  123  A    between atoms: _286  and  _287
REMARK  124  A    between atoms: _286  and  _289
REMARK  125  A    between atoms: _289  and  _290
REMARK  126  A    between atoms: _290  and  _291
REMARK  127  A    between atoms: _291  and  _292
REMARK  128  A    between atoms: _301  and  _303
REMARK  129  A    between atoms: _303  and  _304
REMARK  130  A    between atoms: _303  and  _306
REMARK  131  A    between atoms: _306  and  _307
REMARK  132  A    between atoms: _307  and  _308
REMARK  133  A    between atoms: _310  and  _312
REMARK  134  A    between atoms: _312  and  _313
REMARK  135  A    between atoms: _312  and  _315
REMARK  136  A    between atoms: _315  and  _316
REMARK  137  A    between atoms: _319  and  _321
REMARK  138  A    between atoms: _321  and  _322
REMARK  139  A    between atoms: _321  and  _324
REMARK  140  A    between atoms: _324  and  _325
REMARK  141  A    between atoms: _331  and  _333
REMARK  142  A    between atoms: _333  and  _334
REMARK  143  A    between atoms: _333  and  _336
REMARK  144  A    between atoms: _336  and  _337
REMARK  145  A    between atoms: _339  and  _341
REMARK  146  A    between atoms: _341  and  _342
REMARK  147  A    between atoms: _341  and  _344
REMARK  148  A    between atoms: _344  and  _345
REMARK  149  A    between atoms: _348  and  _350
REMARK  150  A    between atoms: _350  and  _351
REMARK  151  A    between atoms: _353  and  _355
REMARK  152  A    between atoms: _355  and  _356
REMARK  153  A    between atoms: _355  and  _358
REMARK  154  A    between atoms: _358  and  _359
REMARK  155  A    between atoms: _362  and  _364
REMARK  156  A    between atoms: _364  and  _365
REMARK  157  A    between atoms: _364  and  _367
REMARK  158  A    between atoms: _367  and  _368
REMARK  159  A    between atoms: _368  and  _369
REMARK  160  A    between atoms: _371  and  _373
REMARK  161  A    between atoms: _373  and  _374
REMARK  162  A    between atoms: _373  and  _376
REMARK  163  A    between atoms: _376  and  _377
REMARK  164  A    between atoms: _382  and  _384
REMARK  165  A    between atoms: _384  and  _385
REMARK  166  A    between atoms: _388  and  _390
REMARK  167  A    between atoms: _390  and  _391
REMARK  168  A    between atoms: _393  and  _395
REMARK  169  A    between atoms: _395  and  _396
REMARK  170  A    between atoms: _395  and  _398
REMARK  171  A    between atoms: _398  and  _399
REMARK  172  A    between atoms: _405  and  _407
REMARK  173  A    between atoms: _407  and  _408
REMARK  174  A    between atoms: _410  and  _412
REMARK  175  A    between atoms: _412  and  _413
REMARK  176  A    between atoms: _412  and  _415
REMARK  177  A    between atoms: _415  and  _416
REMARK  178  A    between atoms: _419  and  _421
REMARK  179  A    between atoms: _421  and  _422
REMARK  180  A    between atoms: _421  and  _424
REMARK  181  A    between atoms: _424  and  _425
REMARK  182  A    between atoms: _428  and  _430
REMARK  183  A    between atoms: _430  and  _431
REMARK  184  A    between atoms: _430  and  _433
REMARK  185  A    between atoms: _436  and  _438
REMARK  186  A    between atoms: _438  and  _439
REMARK  187  A    between atoms: _438  and  _441
REMARK  188  A    between atoms: _441  and  _442
REMARK  189  A    between atoms: _445  and  _447
REMARK  190  A    between atoms: _447  and  _448
REMARK  191  A    between atoms: _447  and  _450
REMARK  192  A    between atoms: _450  and  _451
REMARK  193  A    between atoms: _453  and  _455
REMARK  194  A    between atoms: _455  and  _456
REMARK  195  A    between atoms: _455  and  _458
REMARK  196  A    between atoms: _458  and  _459
REMARK  197  A    between atoms: _459  and  _460
REMARK  198  A    between atoms: _460  and  _461
REMARK  199  A    between atoms: _461  and  _462
REMARK  200  A    between atoms: _466  and  _468
REMARK  201  A    between atoms: _468  and  _469
REMARK  202  A    between atoms: _471  and  _473
REMARK  203  A    between atoms: _473  and  _474
REMARK  204  A    between atoms: _477  and  _479
REMARK  205  A    between atoms: _479  and  _480
REMARK  206  A    between atoms: _479  and  _482
REMARK  207  A    between atoms: _482  and  _483
REMARK  208  A    between atoms: _483  and  _484
REMARK  209  A    between atoms: _487  and  _489
REMARK  210  A    between atoms: _489  and  _490
REMARK  211  A    between atoms: _489  and  _492
REMARK  212  A    between atoms: _492  and  _493
REMARK  213  A    between atoms: _493  and  _494
REMARK  214  A    between atoms: _494  and  _495
REMARK  215  A    between atoms: _504  and  _506
REMARK  216  A    between atoms: _506  and  _507
REMARK  217  A    between atoms: _510  and  _512
REMARK  218  A    between atoms: _512  and  _513
REMARK  219  A    between atoms: _512  and  _515
REMARK  220  A    between atoms: _515  and  _516
REMARK  221  A    between atoms: _519  and  _521
REMARK  222  A    between atoms: _521  and  _522
REMARK  223  A    between atoms: _521  and  _524
REMARK  224  A    between atoms: _524  and  _525
REMARK  225  A    between atoms: _528  and  _530
REMARK  226  A    between atoms: _530  and  _531
REMARK  227  A    between atoms: _530  and  _533
REMARK  228  A    between atoms: _533  and  _534
REMARK  229  A    between atoms: _537  and  _539
REMARK  230  A    between atoms: _539  and  _540
REMARK  231  A    between atoms: _539  and  _542
REMARK  232  A    between atoms: _542  and  _543
REMARK  233  A    between atoms: _543  and  _544
REMARK  234  A    between atoms: _544  and  _545
REMARK  235  A    between atoms: _545  and  _546
REMARK  236  A    between atoms: _550  and  _552
REMARK  237  A    between atoms: _552  and  _553
REMARK  238  A    between atoms: _552  and  _555
REMARK  239  A    between atoms: _555  and  _556
REMARK  240  A    between atoms: _559  and  _561
REMARK  241  A    between atoms: _561  and  _562
REMARK  242  A    between atoms: _561  and  _564
REMARK  243  A    between atoms: _564  and  _565
REMARK  244  A    between atoms: _565  and  _566
REMARK  245  A    between atoms: _569  and  _570
REMARK  246  A    between atoms: _575  and  _577
REMARK  247  A    between atoms: _577  and  _578
REMARK  248  A    between atoms: _577  and  _580
REMARK  249  A    between atoms: _580  and  _581
REMARK  250  A    between atoms: _584  and  _586
REMARK  251  A    between atoms: _586  and  _587
REMARK  252  A    between atoms: _586  and  _589
REMARK  253  A    between atoms: _589  and  _590
REMARK  254  A    between atoms: _590  and  _591
REMARK  255  A    between atoms: _591  and  _592
REMARK  256  A    between atoms: _601  and  _603
REMARK  257  A    between atoms: _603  and  _604
REMARK  258  A    between atoms: _603  and  _606
REMARK  259  A    between atoms: _606  and  _607
REMARK  260  A    between atoms: _607  and  _608
REMARK  261  A    between atoms: _610  and  _612
REMARK  262  A    between atoms: _612  and  _613
REMARK  263  A    between atoms: _612  and  _615
REMARK  264  A    between atoms: _615  and  _616
REMARK                            x       y       z     vdW  Elec       q    Type
REMARK                         _______ _______ _______ _____ _____    ______ ____
ROOT
ATOM      1  O   HOH     1      52.801  11.555  84.203  0.00  0.00    +0.000 OA
ENDROOT
TORSDOF 0
REMARK  Name = ../refined-set-2016/1fcx/1fcx_pocket.pdb
REMARK  264 active torsions:
REMARK  status: ('A' for Active; 'I' for Inactive)
REMARK    1  A    between atoms: _1  and  _3
REMARK    2  A    between atoms: _3  and  _4
REMARK    3  A    between atoms: _3  and  _6
REMARK    4  A    between atoms: _6  and  _7
REMARK    5  A    between atoms: _10  and  _12
REMARK    6  A    between atoms: _12  and  _13
REMARK    7  A    between atoms: _12  and  _15
REMARK    8  A    between atoms: _15  and  _16
REMARK    9  A    between atoms: _23  and  _24
REMARK   10  A    between atoms: _29  and  _31
REMARK   11  A    between atoms: _31  and  _32
REMARK   12  A    between atoms: _31  and  _34
REMARK   13  A    between atoms: _34  and  _35
REMARK   14  A    between atoms: _38  and  _40
REMARK   15  A    between atoms: _40  and  _41
REMARK   16  A    between atoms: _40  and  _43
REMARK   17  A    between atoms: _43  and  _44
REMARK   18  A    between atoms: _47  and  _49
REMARK   19  A    between atoms: _49  and  _50
REMARK   20  A    between atoms: _49  and  _52
REMARK   21  A    between atoms: _52  and  _53
REMARK   22  A    between atoms: _63  and  _65
REMARK   23  A    between atoms: _65  and  _66
REMARK   24  A    between atoms: _65  and  _68
REMARK   25  A    between atoms: _68  and  _69
REMARK   26  A    between atoms: _69  and  _70
REMARK   27  A    between atoms: _70  and  _71
REMARK   28  A    between atoms: _71  and  _72
REMARK   29  A    between atoms: _76  and  _78
REMARK   30  A    between atoms: _78  and  _79
REMARK   31  A    between atoms: _78  and  _81
REMARK   32  A    between atoms: _81  and  _82
REMARK   33  A    between atoms: _88  and  _90
REMARK   34  A    between atoms: _90  and  _91
REMARK   35  A    between atoms: _90  and  _93
REMARK   36  A    between atoms: _93  and  _94
REMARK   37  A    between atoms: _96  and  _98
REMARK   38  A    between atoms: _98  and  _99
REMARK   39  A    between atoms: _98  and  _101
REMARK   40  A    between atoms: _101  and  _102
REMARK   41  A    between atoms: _102  and  _103
REMARK   42  A    between atoms: _106  and  _108
REMARK   43  A    between atoms: _108  and  _109
REMARK   44  A    between atoms: _108  and  _111
REMARK   45  A    between atoms: _111  and  _112
REMARK   46  A    between atoms: _115  and  _117
REMARK   47  A    between atoms: _117  and  _118
REMARK   48  A    between atoms: _121  and  _123
REMARK   49  A    between atoms: _123  and  _124
REMARK   50  A    between atoms: _123  and  _126
REMARK   51  A    between atoms: _126  and  _127
REMARK   52  A    between atoms: _130  and  _132
REMARK   53  A    between atoms: _132  and  _133
REMARK   54  A    between atoms: _132  and  _135
REMARK   55  A    between atoms: _135  and  _136
REMARK   56  A    between atoms: _136  and  _137
REMARK   57  A    between atoms: _137  and  _138
REMARK   58  A    between atoms: _138  and  _139
REMARK   59  A    between atoms: _143  and  _145
REMARK   60  A    between atoms: _145  and  _146
REMARK   61  A    between atoms: _145  and  _148
REMARK   62  A    between atoms: _150  and  _152
REMARK   63  A    between atoms: _152  and  _153
REMARK   64  A    between atoms: _152  and  _155
REMARK   65  A    between atoms: _155  and  _156
REMARK   66  A    between atoms: _159  and  _161
REMARK   67  A    between atoms: _161  and  _162
REMARK   68  A    between atoms: _161  and  _164
REMARK   69  A    between atoms: _164  and  _165
REMARK   70  A    between atoms: _165  and  _166
REMARK   71  A    between atoms: _166  and  _167
REMARK   72  A    between atoms: _167  and  _168
REMARK   73  A    between atoms: _172  and  _174
REMARK   74  A    between atoms: _174  and  _175
REMARK   75  A    between atoms: _174  and  _177
REMARK   76  A    between atoms: _177  and  _178
REMARK   77  A    between atoms: _181  and  _183
REMARK   78  A    between atoms: _183  and  _184
REMARK   79  A    between atoms: _183  and  _186
REMARK   80  A    between atoms: _188  and  _190
REMARK   81  A    between atoms: _190  and  _191
REMARK   82  A    between atoms: _190  and  _193
REMARK   83  A    between atoms: _193  and  _194
REMARK   84  A    between atoms: _197  and  _199
REMARK   85  A    between atoms: _199  and  _200
REMARK   86  A    between atoms: _199  and  _202
REMARK   87  A    between atoms: _202  and  _203
REMARK   88  A    between atoms: _206  and  _208
REMARK   89  A    between atoms: _208  and  _209
REMARK   90  A    between atoms: _208  and  _211
REMARK   91  A    between atoms: _211  and  _212
REMARK   92  A    between atoms: _215  and  _217
REMARK   93  A    between atoms: _217  and  _218
REMARK   94  A    between atoms: _217  and  _220
REMARK   95  A    between atoms: _220  and  _221
REMARK   96  A    between atoms: _224  and  _226
REMARK   97  A    between atoms: _226  and  _227
REMARK   98  A    between atoms: _226  and  _229
REMARK   99  A    between atoms: _229  and  _230
REMARK  100  A    between atoms: _230  and  _231
REMARK  101  A    between atoms: _233  and  _235
REMARK  102  A    between atoms: _235  and  _236
REMARK  103  A    between atoms: _235  and  _238
REMARK  104  A    between atoms: _238  and  _239
REMARK  105  A    between atoms: _242  and  _244
REMARK  106  A    between atoms: _244  and  _245
REMARK  107  A    between atoms: _244  and  _247
REMARK  108  A    between atoms: _247  and  _248
REMARK  109  A    between atoms: _248  and  _249
REMARK  110  A    between atoms: _249  and  _250
REMARK  111  A    between atoms: _259  and  _261
REMARK  112  A    between atoms: _261  and  _262
REMARK  113  A    between atoms: _261  and  _264
REMARK  114  A    between atoms: _264  and  _265
REMARK  115  A    between atoms: _268  and  _270
REMARK  116  A    between atoms: _270  and  _271
REMARK  117  A    between atoms: _270  and  _273
REMARK  118  A    between atoms: _275  and  _277
REMARK  119  A    between atoms: _277  and  _278
REMARK  120  A    between atoms: _277  and  _280
REMARK  121  A    between atoms: _280  and  _281
REMARK  122  A    between atoms: _284  and  _286
REMARK  123  A    between atoms: _286  and  _287
REMARK  124  A    between atoms: _286  and  _289
REMARK  125  A    between atoms: _289  and  _290
REMARK  126  A    between atoms: _290  and  _291
REMARK  127  A    between atoms: _291  and  _292
REMARK  128  A    between atoms: _301  and  _303
REMARK  129  A    between atoms: _303  and  _304
REMARK  130  A    between atoms: _303  and  _306
REMARK  131  A    between atoms: _306  and  _307
REMARK  132  A    between atoms: _307  and  _308
REMARK  133  A    between atoms: _310  and  _312
REMARK  134  A    between atoms: _312  and  _313
REMARK  135  A    between atoms: _312  and  _315
REMARK  136  A    between atoms: _315  and  _316
REMARK  137  A    between atoms: _319  and  _321
REMARK  138  A    between atoms: _321  and  _322
REMARK  139  A    between atoms: _321  and  _324
REMARK  140  A    between atoms: _324  and  _325
REMARK  141  A    between atoms: _331  and  _333
REMARK  142  A    between atoms: _333  and  _334
REMARK  143  A    between atoms: _333  and  _336
REMARK  144  A    between atoms: _336  and  _337
REMARK  145  A    between atoms: _339  and  _341
REMARK  146  A    between atoms: _341  and  _342
REMARK  147  A    between atoms: _341  and  _344
REMARK  148  A    between atoms: _344  and  _345
REMARK  149  A    between atoms: _348  and  _350
REMARK  150  A    between atoms: _350  and  _351
REMARK  151  A    between atoms: _353  and  _355
REMARK  152  A    between atoms: _355  and  _356
REMARK  153  A    between atoms: _355  and  _358
REMARK  154  A    between atoms: _358  and  _359
REMARK  155  A    between atoms: _362  and  _364
REMARK  156  A    between atoms: _364  and  _365
REMARK  157  A    between atoms: _364  and  _367
REMARK  158  A    between atoms: _367  and  _368
REMARK  159  A    between atoms: _368  and  _369
REMARK  160  A    between atoms: _371  and  _373
REMARK  161  A    between atoms: _373  and  _374
REMARK  162  A    between atoms: _373  and  _376
REMARK  163  A    between atoms: _376  and  _377
REMARK  164  A    between atoms: _382  and  _384
REMARK  165  A    between atoms: _384  and  _385
REMARK  166  A    between atoms: _388  and  _390
REMARK  167  A    between atoms: _390  and  _391
REMARK  168  A    between atoms: _393  and  _395
REMARK  169  A    between atoms: _395  and  _396
REMARK  170  A    between atoms: _395  and  _398
REMARK  171  A    between atoms: _398  and  _399
REMARK  172  A    between atoms: _405  and  _407
REMARK  173  A    between atoms: _407  and  _408
REMARK  174  A    between atoms: _410  and  _412
REMARK  175  A    between atoms: _412  and  _413
REMARK  176  A    between atoms: _412  and  _415
REMARK  177  A    between atoms: _415  and  _416
REMARK  178  A    between atoms: _419  and  _421
REMARK  179  A    between atoms: _421  and  _422
REMARK  180  A    between atoms: _421  and  _424
REMARK  181  A    between atoms: _424  and  _425
REMARK  182  A    between atoms: _428  and  _430
REMARK  183  A    between atoms: _430  and  _431
REMARK  184  A    between atoms: _430  and  _433
REMARK  185  A    between atoms: _436  and  _438
REMARK  186  A    between atoms: _438  and  _439
REMARK  187  A    between atoms: _438  and  _441
REMARK  188  A    between atoms: _441  and  _442
REMARK  189  A    between atoms: _445  and  _447
REMARK  190  A    between atoms: _447  and  _448
REMARK  191  A    between atoms: _447  and  _450
REMARK  192  A    between atoms: _450  and  _451
REMARK  193  A    between atoms: _453  and  _455
REMARK  194  A    between atoms: _455  and  _456
REMARK  195  A    between atoms: _455  and  _458
REMARK  196  A    between atoms: _458  and  _459
REMARK  197  A    between atoms: _459  and  _460
REMARK  198  A    between atoms: _460  and  _461
REMARK  199  A    between atoms: _461  and  _462
REMARK  200  A    between atoms: _466  and  _468
REMARK  201  A    between atoms: _468  and  _469
REMARK  202  A    between atoms: _471  and  _473
REMARK  203  A    between atoms: _473  and  _474
REMARK  204  A    between atoms: _477  and  _479
REMARK  205  A    between atoms: _479  and  _480
REMARK  206  A    between atoms: _479  and  _482
REMARK  207  A    between atoms: _482  and  _483
REMARK  208  A    between atoms: _483  and  _484
REMARK  209  A    between atoms: _487  and  _489
REMARK  210  A    between atoms: _489  and  _490
REMARK  211  A    between atoms: _489  and  _492
REMARK  212  A    between atoms: _492  and  _493
REMARK  213  A    between atoms: _493  and  _494
REMARK  214  A    between atoms: _494  and  _495
REMARK  215  A    between atoms: _504  and  _506
REMARK  216  A    between atoms: _506  and  _507
REMARK  217  A    between atoms: _510  and  _512
REMARK  218  A    between atoms: _512  and  _513
REMARK  219  A    between atoms: _512  and  _515
REMARK  220  A    between atoms: _515  and  _516
REMARK  221  A    between atoms: _519  and  _521
REMARK  222  A    between atoms: _521  and  _522
REMARK  223  A    between atoms: _521  and  _524
REMARK  224  A    between atoms: _524  and  _525
REMARK  225  A    between atoms: _528  and  _530
REMARK  226  A    between atoms: _530  and  _531
REMARK  227  A    between atoms: _530  and  _533
REMARK  228  A    between atoms: _533  and  _534
REMARK  229  A    between atoms: _537  and  _539
REMARK  230  A    between atoms: _539  and  _540
REMARK  231  A    between atoms: _539  and  _542
REMARK  232  A    between atoms: _542  and  _543
REMARK  233  A    between atoms: _543  and  _544
REMARK  234  A    between atoms: _544  and  _545
REMARK  235  A    between atoms: _545  and  _546
REMARK  236  A    between atoms: _550  and  _552
REMARK  237  A    between atoms: _552  and  _553
REMARK  238  A    between atoms: _552  and  _555
REMARK  239  A    between atoms: _555  and  _556
REMARK  240  A    between atoms: _559  and  _561
REMARK  241  A    between atoms: _561  and  _562
REMARK  242  A    between atoms: _561  and  _564
REMARK  243  A    between atoms: _564  and  _565
REMARK  244  A    between atoms: _565  and  _566
REMARK  245  A    between atoms: _569  and  _570
REMARK  246  A    between atoms: _575  and  _577
REMARK  247  A    between atoms: _577  and  _578
REMARK  248  A    between atoms: _577  and  _580
REMARK  249  A    between atoms: _580  and  _581
REMARK  250  A    between atoms: _584  and  _586
REMARK  251  A    between atoms: _586  and  _587
REMARK  252  A    between atoms: _586  and  _589
REMARK  253  A    between atoms: _589  and  _590
REMARK  254  A    between atoms: _590  and  _591
REMARK  255  A    between atoms: _591  and  _592
REMARK  256  A    between atoms: _601  and  _603
REMARK  257  A    between atoms: _603  and  _604
REMARK  258  A    between atoms: _603  and  _606
REMARK  259  A    between atoms: _606  and  _607
REMARK  260  A    between atoms: _607  and  _608
REMARK  261  A    between atoms: _610  and  _612
REMARK  262  A    between atoms: _612  and  _613
REMARK  263  A    between atoms: _612  and  _615
REMARK  264  A    between atoms: _615  and  _616
REMARK                            x       y       z     vdW  Elec       q    Type
REMARK                         _______ _______ _______ _____ _____    ______ ____
ROOT
ATOM      1  O   HOH     1      32.509  22.361  93.500  0.00  0.00    +0.000 OA
ENDROOT
TORSDOF 0
REMARK  Name = ../refined-set-2016/1fcx/1fcx_pocket.pdb
REMARK  264 active torsions:
REMARK  status: ('A' for Active; 'I' for Inactive)
REMARK    1  A    between atoms: _1  and  _3
REMARK    2  A    between atoms: _3  and  _4
REMARK    3  A    between atoms: _3  and  _6
REMARK    4  A    between atoms: _6  and  _7
REMARK    5  A    between atoms: _10  and  _12
REMARK    6  A    between atoms: _12  and  _13
REMARK    7  A    between atoms: _12  and  _15
REMARK    8  A    between atoms: _15  and  _16
REMARK    9  A    between atoms: _23  and  _24
REMARK   10  A    between atoms: _29  and  _31
REMARK   11  A    between atoms: _31  and  _32
REMARK   12  A    between atoms: _31  and  _34
REMARK   13  A    between atoms: _34  and  _35
REMARK   14  A    between atoms: _38  and  _40
REMARK   15  A    between atoms: _40  and  _41
REMARK   16  A    between atoms: _40  and  _43
REMARK   17  A    between atoms: _43  and  _44
REMARK   18  A    between atoms: _47  and  _49
REMARK   19  A    between atoms: _49  and  _50
REMARK   20  A    between atoms: _49  and  _52
REMARK   21  A    between atoms: _52  and  _53
REMARK   22  A    between atoms: _63  and  _65
REMARK   23  A    between atoms: _65  and  _66
REMARK   24  A    between atoms: _65  and  _68
REMARK   25  A    between atoms: _68  and  _69
REMARK   26  A    between atoms: _69  and  _70
REMARK   27  A    between atoms: _70  and  _71
REMARK   28  A    between atoms: _71  and  _72
REMARK   29  A    between atoms: _76  and  _78
REMARK   30  A    between atoms: _78  and  _79
REMARK   31  A    between atoms: _78  and  _81
REMARK   32  A    between atoms: _81  and  _82
REMARK   33  A    between atoms: _88  and  _90
REMARK   34  A    between atoms: _90  and  _91
REMARK   35  A    between atoms: _90  and  _93
REMARK   36  A    between atoms: _93  and  _94
REMARK   37  A    between atoms: _96  and  _98
REMARK   38  A    between atoms: _98  and  _99
REMARK   39  A    between atoms: _98  and  _101
REMARK   40  A    between atoms: _101  and  _102
REMARK   41  A    between atoms: _102  and  _103
REMARK   42  A    between atoms: _106  and  _108
REMARK   43  A    between atoms: _108  and  _109
REMARK   44  A    between atoms: _108  and  _111
REMARK   45  A    between atoms: _111  and  _112
REMARK   46  A    between atoms: _115  and  _117
REMARK   47  A    between atoms: _117  and  _118
REMARK   48  A    between atoms: _121  and  _123
REMARK   49  A    between atoms: _123  and  _124
REMARK   50  A    between atoms: _123  and  _126
REMARK   51  A    between atoms: _126  and  _127
REMARK   52  A    between atoms: _130  and  _132
REMARK   53  A    between atoms: _132  and  _133
REMARK   54  A    between atoms: _132  and  _135
REMARK   55  A    between atoms: _135  and  _136
REMARK   56  A    between atoms: _136  and  _137
REMARK   57  A    between atoms: _137  and  _138
REMARK   58  A    between atoms: _138  and  _139
REMARK   59  A    between atoms: _143  and  _145
REMARK   60  A    between atoms: _145  and  _146
REMARK   61  A    between atoms: _145  and  _148
REMARK   62  A    between atoms: _150  and  _152
REMARK   63  A    between atoms: _152  and  _153
REMARK   64  A    between atoms: _152  and  _155
REMARK   65  A    between atoms: _155  and  _156
REMARK   66  A    between atoms: _159  and  _161
REMARK   67  A    between atoms: _161  and  _162
REMARK   68  A    between atoms: _161  and  _164
REMARK   69  A    between atoms: _164  and  _165
REMARK   70  A    between atoms: _165  and  _166
REMARK   71  A    between atoms: _166  and  _167
REMARK   72  A    between atoms: _167  and  _168
REMARK   73  A    between atoms: _172  and  _174
REMARK   74  A    between atoms: _174  and  _175
REMARK   75  A    between atoms: _174  and  _177
REMARK   76  A    between atoms: _177  and  _178
REMARK   77  A    between atoms: _181  and  _183
REMARK   78  A    between atoms: _183  and  _184
REMARK   79  A    between atoms: _183  and  _186
REMARK   80  A    between atoms: _188  and  _190
REMARK   81  A    between atoms: _190  and  _191
REMARK   82  A    between atoms: _190  and  _193
REMARK   83  A    between atoms: _193  and  _194
REMARK   84  A    between atoms: _197  and  _199
REMARK   85  A    between atoms: _199  and  _200
REMARK   86  A    between atoms: _199  and  _202
REMARK   87  A    between atoms: _202  and  _203
REMARK   88  A    between atoms: _206  and  _208
REMARK   89  A    between atoms: _208  and  _209
REMARK   90  A    between atoms: _208  and  _211
REMARK   91  A    between atoms: _211  and  _212
REMARK   92  A    between atoms: _215  and  _217
REMARK   93  A    between atoms: _217  and  _218
REMARK   94  A    between atoms: _217  and  _220
REMARK   95  A    between atoms: _220  and  _221
REMARK   96  A    between atoms: _224  and  _226
REMARK   97  A    between atoms: _226  and  _227
REMARK   98  A    between atoms: _226  and  _229
REMARK   99  A    between atoms: _229  and  _230
REMARK  100  A    between atoms: _230  and  _231
REMARK  101  A    between atoms: _233  and  _235
REMARK  102  A    between atoms: _235  and  _236
REMARK  103  A    between atoms: _235  and  _238
REMARK  104  A    between atoms: _238  and  _239
REMARK  105  A    between atoms: _242  and  _244
REMARK  106  A    between atoms: _244  and  _245
REMARK  107  A    between atoms: _244  and  _247
REMARK  108  A    between atoms: _247  and  _248
REMARK  109  A    between atoms: _248  and  _249
REMARK  110  A    between atoms: _249  and  _250
REMARK  111  A    between atoms: _259  and  _261
REMARK  112  A    between atoms: _261  and  _262
REMARK  113  A    between atoms: _261  and  _264
REMARK  114  A    between atoms: _264  and  _265
REMARK  115  A    between atoms: _268  and  _270
REMARK  116  A    between atoms: _270  and  _271
REMARK  117  A    between atoms: _270  and  _273
REMARK  118  A    between atoms: _275  and  _277
REMARK  119  A    between atoms: _277  and  _278
REMARK  120  A    between atoms: _277  and  _280
REMARK  121  A    between atoms: _280  and  _281
REMARK  122  A    between atoms: _284  and  _286
REMARK  123  A    between atoms: _286  and  _287
REMARK  124  A    between atoms: _286  and  _289
REMARK  125  A    between atoms: _289  and  _290
REMARK  126  A    between atoms: _290  and  _291
REMARK  127  A    between atoms: _291  and  _292
REMARK  128  A    between atoms: _301  and  _303
REMARK  129  A    between atoms: _303  and  _304
REMARK  130  A    between atoms: _303  and  _306
REMARK  131  A    between atoms: _306  and  _307
REMARK  132  A    between atoms: _307  and  _308
REMARK  133  A    between atoms: _310  and  _312
REMARK  134  A    between atoms: _312  and  _313
REMARK  135  A    between atoms: _312  and  _315
REMARK  136  A    between atoms: _315  and  _316
REMARK  137  A    between atoms: _319  and  _321
REMARK  138  A    between atoms: _321  and  _322
REMARK  139  A    between atoms: _321  and  _324
REMARK  140  A    between atoms: _324  and  _325
REMARK  141  A    between atoms: _331  and  _333
REMARK  142  A    between atoms: _333  and  _334
REMARK  143  A    between atoms: _333  and  _336
REMARK  144  A    between atoms: _336  and  _337
REMARK  145  A    between atoms: _339  and  _341
REMARK  146  A    between atoms: _341  and  _342
REMARK  147  A    between atoms: _341  and  _344
REMARK  148  A    between atoms: _344  and  _345
REMARK  149  A    between atoms: _348  and  _350
REMARK  150  A    between atoms: _350  and  _351
REMARK  151  A    between atoms: _353  and  _355
REMARK  152  A    between atoms: _355  and  _356
REMARK  153  A    between atoms: _355  and  _358
REMARK  154  A    between atoms: _358  and  _359
REMARK  155  A    between atoms: _362  and  _364
REMARK  156  A    between atoms: _364  and  _365
REMARK  157  A    between atoms: _364  and  _367
REMARK  158  A    between atoms: _367  and  _368
REMARK  159  A    between atoms: _368  and  _369
REMARK  160  A    between atoms: _371  and  _373
REMARK  161  A    between atoms: _373  and  _374
REMARK  162  A    between atoms: _373  and  _376
REMARK  163  A    between atoms: _376  and  _377
REMARK  164  A    between atoms: _382  and  _384
REMARK  165  A    between atoms: _384  and  _385
REMARK  166  A    between atoms: _388  and  _390
REMARK  167  A    between atoms: _390  and  _391
REMARK  168  A    between atoms: _393  and  _395
REMARK  169  A    between atoms: _395  and  _396
REMARK  170  A    between atoms: _395  and  _398
REMARK  171  A    between atoms: _398  and  _399
REMARK  172  A    between atoms: _405  and  _407
REMARK  173  A    between atoms: _407  and  _408
REMARK  174  A    between atoms: _410  and  _412
REMARK  175  A    between atoms: _412  and  _413
REMARK  176  A    between atoms: _412  and  _415
REMARK  177  A    between atoms: _415  and  _416
REMARK  178  A    between atoms: _419  and  _421
REMARK  179  A    between atoms: _421  and  _422
REMARK  180  A    between atoms: _421  and  _424
REMARK  181  A    between atoms: _424  and  _425
REMARK  182  A    between atoms: _428  and  _430
REMARK  183  A    between atoms: _430  and  _431
REMARK  184  A    between atoms: _430  and  _433
REMARK  185  A    between atoms: _436  and  _438
REMARK  186  A    between atoms: _438  and  _439
REMARK  187  A    between atoms: _438  and  _441
REMARK  188  A    between atoms: _441  and  _442
REMARK  189  A    between atoms: _445  and  _447
REMARK  190  A    between atoms: _447  and  _448
REMARK  191  A    between atoms: _447  and  _450
REMARK  192  A    between atoms: _450  and  _451
REMARK  193  A    between atoms: _453  and  _455
REMARK  194  A    between atoms: _455  and  _456
REMARK  195  A    between atoms: _455  and  _458
REMARK  196  A    between atoms: _458  and  _459
REMARK  197  A    between atoms: _459  and  _460
REMARK  198  A    between atoms: _460  and  _461
REMARK  199  A    between atoms: _461  and  _462
REMARK  200  A    between atoms: _466  and  _468
REMARK  201  A    between atoms: _468  and  _469
REMARK  202  A    between atoms: _471  and  _473
REMARK  203  A    between atoms: _473  and  _474
REMARK  204  A    between atoms: _477  and  _479
REMARK  205  A    between atoms: _479  and  _480
REMARK  206  A    between atoms: _479  and  _482
REMARK  207  A    between atoms: _482  and  _483
REMARK  208  A    between atoms: _483  and  _484
REMARK  209  A    between atoms: _487  and  _489
REMARK  210  A    between atoms: _489  and  _490
REMARK  211  A    between atoms: _489  and  _492
REMARK  212  A    between atoms: _492  and  _493
REMARK  213  A    between atoms: _493  and  _494
REMARK  214  A    between atoms: _494  and  _495
REMARK  215  A    between atoms: _504  and  _506
REMARK  216  A    between atoms: _506  and  _507
REMARK  217  A    between atoms: _510  and  _512
REMARK  218  A    between atoms: _512  and  _513
REMARK  219  A    between atoms: _512  and  _515
REMARK  220  A    between atoms: _515  and  _516
REMARK  221  A    between atoms: _519  and  _521
REMARK  222  A    between atoms: _521  and  _522
REMARK  223  A    between atoms: _521  and  _524
REMARK  224  A    between atoms: _524  and  _525
REMARK  225  A    between atoms: _528  and  _530
REMARK  226  A    between atoms: _530  and  _531
REMARK  227  A    between atoms: _530  and  _533
REMARK  228  A    between atoms: _533  and  _534
REMARK  229  A    between atoms: _537  and  _539
REMARK  230  A    between atoms: _539  and  _540
REMARK  231  A    between atoms: _539  and  _542
REMARK  232  A    between atoms: _542  and  _543
REMARK  233  A    between atoms: _543  and  _544
REMARK  234  A    between atoms: _544  and  _545
REMARK  235  A    between atoms: _545  and  _546
REMARK  236  A    between atoms: _550  and  _552
REMARK  237  A    between atoms: _552  and  _553
REMARK  238  A    between atoms: _552  and  _555
REMARK  239  A    between atoms: _555  and  _556
REMARK  240  A    between atoms: _559  and  _561
REMARK  241  A    between atoms: _561  and  _562
REMARK  242  A    between atoms: _561  and  _564
REMARK  243  A    between atoms: _564  and  _565
REMARK  244  A    between atoms: _565  and  _566
REMARK  245  A    between atoms: _569  and  _570
REMARK  246  A    between atoms: _575  and  _577
REMARK  247  A    between atoms: _577  and  _578
REMARK  248  A    between atoms: _577  and  _580
REMARK  249  A    between atoms: _580  and  _581
REMARK  250  A    between atoms: _584  and  _586
REMARK  251  A    between atoms: _586  and  _587
REMARK  252  A    between atoms: _586  and  _589
REMARK  253  A    between atoms: _589  and  _590
REMARK  254  A    between atoms: _590  and  _591
REMARK  255  A    between atoms: _591  and  _592
REMARK  256  A    between atoms: _601  and  _603
REMARK  257  A    between atoms: _603  and  _604
REMARK  258  A    between atoms: _603  and  _606
REMARK  259  A    between atoms: _606  and  _607
REMARK  260  A    between atoms: _607  and  _608
REMARK  261  A    between atoms: _610  and  _612
REMARK  262  A    between atoms: _612  and  _613
REMARK  263  A    between atoms: _612  and  _615
REMARK  264  A    between atoms: _615  and  _616
REMARK                            x       y       z     vdW  Elec       q    Type
REMARK                         _______ _______ _______ _____ _____    ______ ____
ROOT
ATOM      1  O   HOH     1      35.608  21.521  88.449  0.00  0.00    +0.000 OA
ENDROOT
TORSDOF 0
REMARK  Name = ../refined-set-2016/1fcx/1fcx_pocket.pdb
REMARK  264 active torsions:
REMARK  status: ('A' for Active; 'I' for Inactive)
REMARK    1  A    between atoms: _1  and  _3
REMARK    2  A    between atoms: _3  and  _4
REMARK    3  A    between atoms: _3  and  _6
REMARK    4  A    between atoms: _6  and  _7
REMARK    5  A    between atoms: _10  and  _12
REMARK    6  A    between atoms: _12  and  _13
REMARK    7  A    between atoms: _12  and  _15
REMARK    8  A    between atoms: _15  and  _16
REMARK    9  A    between atoms: _23  and  _24
REMARK   10  A    between atoms: _29  and  _31
REMARK   11  A    between atoms: _31  and  _32
REMARK   12  A    between atoms: _31  and  _34
REMARK   13  A    between atoms: _34  and  _35
REMARK   14  A    between atoms: _38  and  _40
REMARK   15  A    between atoms: _40  and  _41
REMARK   16  A    between atoms: _40  and  _43
REMARK   17  A    between atoms: _43  and  _44
REMARK   18  A    between atoms: _47  and  _49
REMARK   19  A    between atoms: _49  and  _50
REMARK   20  A    between atoms: _49  and  _52
REMARK   21  A    between atoms: _52  and  _53
REMARK   22  A    between atoms: _63  and  _65
REMARK   23  A    between atoms: _65  and  _66
REMARK   24  A    between atoms: _65  and  _68
REMARK   25  A    between atoms: _68  and  _69
REMARK   26  A    between atoms: _69  and  _70
REMARK   27  A    between atoms: _70  and  _71
REMARK   28  A    between atoms: _71  and  _72
REMARK   29  A    between atoms: _76  and  _78
REMARK   30  A    between atoms: _78  and  _79
REMARK   31  A    between atoms: _78  and  _81
REMARK   32  A    between atoms: _81  and  _82
REMARK   33  A    between atoms: _88  and  _90
REMARK   34  A    between atoms: _90  and  _91
REMARK   35  A    between atoms: _90  and  _93
REMARK   36  A    between atoms: _93  and  _94
REMARK   37  A    between atoms: _96  and  _98
REMARK   38  A    between atoms: _98  and  _99
REMARK   39  A    between atoms: _98  and  _101
REMARK   40  A    between atoms: _101  and  _102
REMARK   41  A    between atoms: _102  and  _103
REMARK   42  A    between atoms: _106  and  _108
REMARK   43  A    between atoms: _108  and  _109
REMARK   44  A    between atoms: _108  and  _111
REMARK   45  A    between atoms: _111  and  _112
REMARK   46  A    between atoms: _115  and  _117
REMARK   47  A    between atoms: _117  and  _118
REMARK   48  A    between atoms: _121  and  _123
REMARK   49  A    between atoms: _123  and  _124
REMARK   50  A    between atoms: _123  and  _126
REMARK   51  A    between atoms: _126  and  _127
REMARK   52  A    between atoms: _130  and  _132
REMARK   53  A    between atoms: _132  and  _133
REMARK   54  A    between atoms: _132  and  _135
REMARK   55  A    between atoms: _135  and  _136
REMARK   56  A    between atoms: _136  and  _137
REMARK   57  A    between atoms: _137  and  _138
REMARK   58  A    between atoms: _138  and  _139
REMARK   59  A    between atoms: _143  and  _145
REMARK   60  A    between atoms: _145  and  _146
REMARK   61  A    between atoms: _145  and  _148
REMARK   62  A    between atoms: _150  and  _152
REMARK   63  A    between atoms: _152  and  _153
REMARK   64  A    between atoms: _152  and  _155
REMARK   65  A    between atoms: _155  and  _156
REMARK   66  A    between atoms: _159  and  _161
REMARK   67  A    between atoms: _161  and  _162
REMARK   68  A    between atoms: _161  and  _164
REMARK   69  A    between atoms: _164  and  _165
REMARK   70  A    between atoms: _165  and  _166
REMARK   71  A    between atoms: _166  and  _167
REMARK   72  A    between atoms: _167  and  _168
REMARK   73  A    between atoms: _172  and  _174
REMARK   74  A    between atoms: _174  and  _175
REMARK   75  A    between atoms: _174  and  _177
REMARK   76  A    between atoms: _177  and  _178
REMARK   77  A    between atoms: _181  and  _183
REMARK   78  A    between atoms: _183  and  _184
REMARK   79  A    between atoms: _183  and  _186
REMARK   80  A    between atoms: _188  and  _190
REMARK   81  A    between atoms: _190  and  _191
REMARK   82  A    between atoms: _190  and  _193
REMARK   83  A    between atoms: _193  and  _194
REMARK   84  A    between atoms: _197  and  _199
REMARK   85  A    between atoms: _199  and  _200
REMARK   86  A    between atoms: _199  and  _202
REMARK   87  A    between atoms: _202  and  _203
REMARK   88  A    between atoms: _206  and  _208
REMARK   89  A    between atoms: _208  and  _209
REMARK   90  A    between atoms: _208  and  _211
REMARK   91  A    between atoms: _211  and  _212
REMARK   92  A    between atoms: _215  and  _217
REMARK   93  A    between atoms: _217  and  _218
REMARK   94  A    between atoms: _217  and  _220
REMARK   95  A    between atoms: _220  and  _221
REMARK   96  A    between atoms: _224  and  _226
REMARK   97  A    between atoms: _226  and  _227
REMARK   98  A    between atoms: _226  and  _229
REMARK   99  A    between atoms: _229  and  _230
REMARK  100  A    between atoms: _230  and  _231
REMARK  101  A    between atoms: _233  and  _235
REMARK  102  A    between atoms: _235  and  _236
REMARK  103  A    between atoms: _235  and  _238
REMARK  104  A    between atoms: _238  and  _239
REMARK  105  A    between atoms: _242  and  _244
REMARK  106  A    between atoms: _244  and  _245
REMARK  107  A    between atoms: _244  and  _247
REMARK  108  A    between atoms: _247  and  _248
REMARK  109  A    between atoms: _248  and  _249
REMARK  110  A    between atoms: _249  and  _250
REMARK  111  A    between atoms: _259  and  _261
REMARK  112  A    between atoms: _261  and  _262
REMARK  113  A    between atoms: _261  and  _264
REMARK  114  A    between atoms: _264  and  _265
REMARK  115  A    between atoms: _268  and  _270
REMARK  116  A    between atoms: _270  and  _271
REMARK  117  A    between atoms: _270  and  _273
REMARK  118  A    between atoms: _275  and  _277
REMARK  119  A    between atoms: _277  and  _278
REMARK  120  A    between atoms: _277  and  _280
REMARK  121  A    between atoms: _280  and  _281
REMARK  122  A    between atoms: _284  and  _286
REMARK  123  A    between atoms: _286  and  _287
REMARK  124  A    between atoms: _286  and  _289
REMARK  125  A    between atoms: _289  and  _290
REMARK  126  A    between atoms: _290  and  _291
REMARK  127  A    between atoms: _291  and  _292
REMARK  128  A    between atoms: _301  and  _303
REMARK  129  A    between atoms: _303  and  _304
REMARK  130  A    between atoms: _303  and  _306
REMARK  131  A    between atoms: _306  and  _307
REMARK  132  A    between atoms: _307  and  _308
REMARK  133  A    between atoms: _310  and  _312
REMARK  134  A    between atoms: _312  and  _313
REMARK  135  A    between atoms: _312  and  _315
REMARK  136  A    between atoms: _315  and  _316
REMARK  137  A    between atoms: _319  and  _321
REMARK  138  A    between atoms: _321  and  _322
REMARK  139  A    between atoms: _321  and  _324
REMARK  140  A    between atoms: _324  and  _325
REMARK  141  A    between atoms: _331  and  _333
REMARK  142  A    between atoms: _333  and  _334
REMARK  143  A    between atoms: _333  and  _336
REMARK  144  A    between atoms: _336  and  _337
REMARK  145  A    between atoms: _339  and  _341
REMARK  146  A    between atoms: _341  and  _342
REMARK  147  A    between atoms: _341  and  _344
REMARK  148  A    between atoms: _344  and  _345
REMARK  149  A    between atoms: _348  and  _350
REMARK  150  A    between atoms: _350  and  _351
REMARK  151  A    between atoms: _353  and  _355
REMARK  152  A    between atoms: _355  and  _356
REMARK  153  A    between atoms: _355  and  _358
REMARK  154  A    between atoms: _358  and  _359
REMARK  155  A    between atoms: _362  and  _364
REMARK  156  A    between atoms: _364  and  _365
REMARK  157  A    between atoms: _364  and  _367
REMARK  158  A    between atoms: _367  and  _368
REMARK  159  A    between atoms: _368  and  _369
REMARK  160  A    between atoms: _371  and  _373
REMARK  161  A    between atoms: _373  and  _374
REMARK  162  A    between atoms: _373  and  _376
REMARK  163  A    between atoms: _376  and  _377
REMARK  164  A    between atoms: _382  and  _384
REMARK  165  A    between atoms: _384  and  _385
REMARK  166  A    between atoms: _388  and  _390
REMARK  167  A    between atoms: _390  and  _391
REMARK  168  A    between atoms: _393  and  _395
REMARK  169  A    between atoms: _395  and  _396
REMARK  170  A    between atoms: _395  and  _398
REMARK  171  A    between atoms: _398  and  _399
REMARK  172  A    between atoms: _405  and  _407
REMARK  173  A    between atoms: _407  and  _408
REMARK  174  A    between atoms: _410  and  _412
REMARK  175  A    between atoms: _412  and  _413
REMARK  176  A    between atoms: _412  and  _415
REMARK  177  A    between atoms: _415  and  _416
REMARK  178  A    between atoms: _419  and  _421
REMARK  179  A    between atoms: _421  and  _422
REMARK  180  A    between atoms: _421  and  _424
REMARK  181  A    between atoms: _424  and  _425
REMARK  182  A    between atoms: _428  and  _430
REMARK  183  A    between atoms: _430  and  _431
REMARK  184  A    between atoms: _430  and  _433
REMARK  185  A    between atoms: _436  and  _438
REMARK  186  A    between atoms: _438  and  _439
REMARK  187  A    between atoms: _438  and  _441
REMARK  188  A    between atoms: _441  and  _442
REMARK  189  A    between atoms: _445  and  _447
REMARK  190  A    between atoms: _447  and  _448
REMARK  191  A    between atoms: _447  and  _450
REMARK  192  A    between atoms: _450  and  _451
REMARK  193  A    between atoms: _453  and  _455
REMARK  194  A    between atoms: _455  and  _456
REMARK  195  A    between atoms: _455  and  _458
REMARK  196  A    between atoms: _458  and  _459
REMARK  197  A    between atoms: _459  and  _460
REMARK  198  A    between atoms: _460  and  _461
REMARK  199  A    between atoms: _461  and  _462
REMARK  200  A    between atoms: _466  and  _468
REMARK  201  A    between atoms: _468  and  _469
REMARK  202  A    between atoms: _471  and  _473
REMARK  203  A    between atoms: _473  and  _474
REMARK  204  A    between atoms: _477  and  _479
REMARK  205  A    between atoms: _479  and  _480
REMARK  206  A    between atoms: _479  and  _482
REMARK  207  A    between atoms: _482  and  _483
REMARK  208  A    between atoms: _483  and  _484
REMARK  209  A    between atoms: _487  and  _489
REMARK  210  A    between atoms: _489  and  _490
REMARK  211  A    between atoms: _489  and  _492
REMARK  212  A    between atoms: _492  and  _493
REMARK  213  A    between atoms: _493  and  _494
REMARK  214  A    between atoms: _494  and  _495
REMARK  215  A    between atoms: _504  and  _506
REMARK  216  A    between atoms: _506  and  _507
REMARK  217  A    between atoms: _510  and  _512
REMARK  218  A    between atoms: _512  and  _513
REMARK  219  A    between atoms: _512  and  _515
REMARK  220  A    between atoms: _515  and  _516
REMARK  221  A    between atoms: _519  and  _521
REMARK  222  A    between atoms: _521  and  _522
REMARK  223  A    between atoms: _521  and  _524
REMARK  224  A    between atoms: _524  and  _525
REMARK  225  A    between atoms: _528  and  _530
REMARK  226  A    between atoms: _530  and  _531
REMARK  227  A    between atoms: _530  and  _533
REMARK  228  A    between atoms: _533  and  _534
REMARK  229  A    between atoms: _537  and  _539
REMARK  230  A    between atoms: _539  and  _540
REMARK  231  A    between atoms: _539  and  _542
REMARK  232  A    between atoms: _542  and  _543
REMARK  233  A    between atoms: _543  and  _544
REMARK  234  A    between atoms: _544  and  _545
REMARK  235  A    between atoms: _545  and  _546
REMARK  236  A    between atoms: _550  and  _552
REMARK  237  A    between atoms: _552  and  _553
REMARK  238  A    between atoms: _552  and  _555
REMARK  239  A    between atoms: _555  and  _556
REMARK  240  A    between atoms: _559  and  _561
REMARK  241  A    between atoms: _561  and  _562
REMARK  242  A    between atoms: _561  and  _564
REMARK  243  A    between atoms: _564  and  _565
REMARK  244  A    between atoms: _565  and  _566
REMARK  245  A    between atoms: _569  and  _570
REMARK  246  A    between atoms: _575  and  _577
REMARK  247  A    between atoms: _577  and  _578
REMARK  248  A    between atoms: _577  and  _580
REMARK  249  A    between atoms: _580  and  _581
REMARK  250  A    between atoms: _584  and  _586
REMARK  251  A    between atoms: _586  and  _587
REMARK  252  A    between atoms: _586  and  _589
REMARK  253  A    between atoms: _589  and  _590
REMARK  254  A    between atoms: _590  and  _591
REMARK  255  A    between atoms: _591  and  _592
REMARK  256  A    between atoms: _601  and  _603
REMARK  257  A    between atoms: _603  and  _604
REMARK  258  A    between atoms: _603  and  _606
REMARK  259  A    between atoms: _606  and  _607
REMARK  260  A    between atoms: _607  and  _608
REMARK  261  A    between atoms: _610  and  _612
REMARK  262  A    between atoms: _612  and  _613
REMARK  263  A    between atoms: _612  and  _615
REMARK  264  A    between atoms: _615  and  _616
REMARK                            x       y       z     vdW  Elec       q    Type
REMARK                         _______ _______ _______ _____ _____    ______ ____
ROOT
ATOM      1  O   HOH     1      40.897  14.234  72.367  0.00  0.00    +0.000 OA
ENDROOT
TORSDOF 0
REMARK  Name = ../refined-set-2016/1fcx/1fcx_pocket.pdb
REMARK  264 active torsions:
REMARK  status: ('A' for Active; 'I' for Inactive)
REMARK    1  A    between atoms: _1  and  _3
REMARK    2  A    between atoms: _3  and  _4
REMARK    3  A    between atoms: _3  and  _6
REMARK    4  A    between atoms: _6  and  _7
REMARK    5  A    between atoms: _10  and  _12
REMARK    6  A    between atoms: _12  and  _13
REMARK    7  A    between atoms: _12  and  _15
REMARK    8  A    between atoms: _15  and  _16
REMARK    9  A    between atoms: _23  and  _24
REMARK   10  A    between atoms: _29  and  _31
REMARK   11  A    between atoms: _31  and  _32
REMARK   12  A    between atoms: _31  and  _34
REMARK   13  A    between atoms: _34  and  _35
REMARK   14  A    between atoms: _38  and  _40
REMARK   15  A    between atoms: _40  and  _41
REMARK   16  A    between atoms: _40  and  _43
REMARK   17  A    between atoms: _43  and  _44
REMARK   18  A    between atoms: _47  and  _49
REMARK   19  A    between atoms: _49  and  _50
REMARK   20  A    between atoms: _49  and  _52
REMARK   21  A    between atoms: _52  and  _53
REMARK   22  A    between atoms: _63  and  _65
REMARK   23  A    between atoms: _65  and  _66
REMARK   24  A    between atoms: _65  and  _68
REMARK   25  A    between atoms: _68  and  _69
REMARK   26  A    between atoms: _69  and  _70
REMARK   27  A    between atoms: _70  and  _71
REMARK   28  A    between atoms: _71  and  _72
REMARK   29  A    between atoms: _76  and  _78
REMARK   30  A    between atoms: _78  and  _79
REMARK   31  A    between atoms: _78  and  _81
REMARK   32  A    between atoms: _81  and  _82
REMARK   33  A    between atoms: _88  and  _90
REMARK   34  A    between atoms: _90  and  _91
REMARK   35  A    between atoms: _90  and  _93
REMARK   36  A    between atoms: _93  and  _94
REMARK   37  A    between atoms: _96  and  _98
REMARK   38  A    between atoms: _98  and  _99
REMARK   39  A    between atoms: _98  and  _101
REMARK   40  A    between atoms: _101  and  _102
REMARK   41  A    between atoms: _102  and  _103
REMARK   42  A    between atoms: _106  and  _108
REMARK   43  A    between atoms: _108  and  _109
REMARK   44  A    between atoms: _108  and  _111
REMARK   45  A    between atoms: _111  and  _112
REMARK   46  A    between atoms: _115  and  _117
REMARK   47  A    between atoms: _117  and  _118
REMARK   48  A    between atoms: _121  and  _123
REMARK   49  A    between atoms: _123  and  _124
REMARK   50  A    between atoms: _123  and  _126
REMARK   51  A    between atoms: _126  and  _127
REMARK   52  A    between atoms: _130  and  _132
REMARK   53  A    between atoms: _132  and  _133
REMARK   54  A    between atoms: _132  and  _135
REMARK   55  A    between atoms: _135  and  _136
REMARK   56  A    between atoms: _136  and  _137
REMARK   57  A    between atoms: _137  and  _138
REMARK   58  A    between atoms: _138  and  _139
REMARK   59  A    between atoms: _143  and  _145
REMARK   60  A    between atoms: _145  and  _146
REMARK   61  A    between atoms: _145  and  _148
REMARK   62  A    between atoms: _150  and  _152
REMARK   63  A    between atoms: _152  and  _153
REMARK   64  A    between atoms: _152  and  _155
REMARK   65  A    between atoms: _155  and  _156
REMARK   66  A    between atoms: _159  and  _161
REMARK   67  A    between atoms: _161  and  _162
REMARK   68  A    between atoms: _161  and  _164
REMARK   69  A    between atoms: _164  and  _165
REMARK   70  A    between atoms: _165  and  _166
REMARK   71  A    between atoms: _166  and  _167
REMARK   72  A    between atoms: _167  and  _168
REMARK   73  A    between atoms: _172  and  _174
REMARK   74  A    between atoms: _174  and  _175
REMARK   75  A    between atoms: _174  and  _177
REMARK   76  A    between atoms: _177  and  _178
REMARK   77  A    between atoms: _181  and  _183
REMARK   78  A    between atoms: _183  and  _184
REMARK   79  A    between atoms: _183  and  _186
REMARK   80  A    between atoms: _188  and  _190
REMARK   81  A    between atoms: _190  and  _191
REMARK   82  A    between atoms: _190  and  _193
REMARK   83  A    between atoms: _193  and  _194
REMARK   84  A    between atoms: _197  and  _199
REMARK   85  A    between atoms: _199  and  _200
REMARK   86  A    between atoms: _199  and  _202
REMARK   87  A    between atoms: _202  and  _203
REMARK   88  A    between atoms: _206  and  _208
REMARK   89  A    between atoms: _208  and  _209
REMARK   90  A    between atoms: _208  and  _211
REMARK   91  A    between atoms: _211  and  _212
REMARK   92  A    between atoms: _215  and  _217
REMARK   93  A    between atoms: _217  and  _218
REMARK   94  A    between atoms: _217  and  _220
REMARK   95  A    between atoms: _220  and  _221
REMARK   96  A    between atoms: _224  and  _226
REMARK   97  A    between atoms: _226  and  _227
REMARK   98  A    between atoms: _226  and  _229
REMARK   99  A    between atoms: _229  and  _230
REMARK  100  A    between atoms: _230  and  _231
REMARK  101  A    between atoms: _233  and  _235
REMARK  102  A    between atoms: _235  and  _236
REMARK  103  A    between atoms: _235  and  _238
REMARK  104  A    between atoms: _238  and  _239
REMARK  105  A    between atoms: _242  and  _244
REMARK  106  A    between atoms: _244  and  _245
REMARK  107  A    between atoms: _244  and  _247
REMARK  108  A    between atoms: _247  and  _248
REMARK  109  A    between atoms: _248  and  _249
REMARK  110  A    between atoms: _249  and  _250
REMARK  111  A    between atoms: _259  and  _261
REMARK  112  A    between atoms: _261  and  _262
REMARK  113  A    between atoms: _261  and  _264
REMARK  114  A    between atoms: _264  and  _265
REMARK  115  A    between atoms: _268  and  _270
REMARK  116  A    between atoms: _270  and  _271
REMARK  117  A    between atoms: _270  and  _273
REMARK  118  A    between atoms: _275  and  _277
REMARK  119  A    between atoms: _277  and  _278
REMARK  120  A    between atoms: _277  and  _280
REMARK  121  A    between atoms: _280  and  _281
REMARK  122  A    between atoms: _284  and  _286
REMARK  123  A    between atoms: _286  and  _287
REMARK  124  A    between atoms: _286  and  _289
REMARK  125  A    between atoms: _289  and  _290
REMARK  126  A    between atoms: _290  and  _291
REMARK  127  A    between atoms: _291  and  _292
REMARK  128  A    between atoms: _301  and  _303
REMARK  129  A    between atoms: _303  and  _304
REMARK  130  A    between atoms: _303  and  _306
REMARK  131  A    between atoms: _306  and  _307
REMARK  132  A    between atoms: _307  and  _308
REMARK  133  A    between atoms: _310  and  _312
REMARK  134  A    between atoms: _312  and  _313
REMARK  135  A    between atoms: _312  and  _315
REMARK  136  A    between atoms: _315  and  _316
REMARK  137  A    between atoms: _319  and  _321
REMARK  138  A    between atoms: _321  and  _322
REMARK  139  A    between atoms: _321  and  _324
REMARK  140  A    between atoms: _324  and  _325
REMARK  141  A    between atoms: _331  and  _333
REMARK  142  A    between atoms: _333  and  _334
REMARK  143  A    between atoms: _333  and  _336
REMARK  144  A    between atoms: _336  and  _337
REMARK  145  A    between atoms: _339  and  _341
REMARK  146  A    between atoms: _341  and  _342
REMARK  147  A    between atoms: _341  and  _344
REMARK  148  A    between atoms: _344  and  _345
REMARK  149  A    between atoms: _348  and  _350
REMARK  150  A    between atoms: _350  and  _351
REMARK  151  A    between atoms: _353  and  _355
REMARK  152  A    between atoms: _355  and  _356
REMARK  153  A    between atoms: _355  and  _358
REMARK  154  A    between atoms: _358  and  _359
REMARK  155  A    between atoms: _362  and  _364
REMARK  156  A    between atoms: _364  and  _365
REMARK  157  A    between atoms: _364  and  _367
REMARK  158  A    between atoms: _367  and  _368
REMARK  159  A    between atoms: _368  and  _369
REMARK  160  A    between atoms: _371  and  _373
REMARK  161  A    between atoms: _373  and  _374
REMARK  162  A    between atoms: _373  and  _376
REMARK  163  A    between atoms: _376  and  _377
REMARK  164  A    between atoms: _382  and  _384
REMARK  165  A    between atoms: _384  and  _385
REMARK  166  A    between atoms: _388  and  _390
REMARK  167  A    between atoms: _390  and  _391
REMARK  168  A    between atoms: _393  and  _395
REMARK  169  A    between atoms: _395  and  _396
REMARK  170  A    between atoms: _395  and  _398
REMARK  171  A    between atoms: _398  and  _399
REMARK  172  A    between atoms: _405  and  _407
REMARK  173  A    between atoms: _407  and  _408
REMARK  174  A    between atoms: _410  and  _412
REMARK  175  A    between atoms: _412  and  _413
REMARK  176  A    between atoms: _412  and  _415
REMARK  177  A    between atoms: _415  and  _416
REMARK  178  A    between atoms: _419  and  _421
REMARK  179  A    between atoms: _421  and  _422
REMARK  180  A    between atoms: _421  and  _424
REMARK  181  A    between atoms: _424  and  _425
REMARK  182  A    between atoms: _428  and  _430
REMARK  183  A    between atoms: _430  and  _431
REMARK  184  A    between atoms: _430  and  _433
REMARK  185  A    between atoms: _436  and  _438
REMARK  186  A    between atoms: _438  and  _439
REMARK  187  A    between atoms: _438  and  _441
REMARK  188  A    between atoms: _441  and  _442
REMARK  189  A    between atoms: _445  and  _447
REMARK  190  A    between atoms: _447  and  _448
REMARK  191  A    between atoms: _447  and  _450
REMARK  192  A    between atoms: _450  and  _451
REMARK  193  A    between atoms: _453  and  _455
REMARK  194  A    between atoms: _455  and  _456
REMARK  195  A    between atoms: _455  and  _458
REMARK  196  A    between atoms: _458  and  _459
REMARK  197  A    between atoms: _459  and  _460
REMARK  198  A    between atoms: _460  and  _461
REMARK  199  A    between atoms: _461  and  _462
REMARK  200  A    between atoms: _466  and  _468
REMARK  201  A    between atoms: _468  and  _469
REMARK  202  A    between atoms: _471  and  _473
REMARK  203  A    between atoms: _473  and  _474
REMARK  204  A    between atoms: _477  and  _479
REMARK  205  A    between atoms: _479  and  _480
REMARK  206  A    between atoms: _479  and  _482
REMARK  207  A    between atoms: _482  and  _483
REMARK  208  A    between atoms: _483  and  _484
REMARK  209  A    between atoms: _487  and  _489
REMARK  210  A    between atoms: _489  and  _490
REMARK  211  A    between atoms: _489  and  _492
REMARK  212  A    between atoms: _492  and  _493
REMARK  213  A    between atoms: _493  and  _494
REMARK  214  A    between atoms: _494  and  _495
REMARK  215  A    between atoms: _504  and  _506
REMARK  216  A    between atoms: _506  and  _507
REMARK  217  A    between atoms: _510  and  _512
REMARK  218  A    between atoms: _512  and  _513
REMARK  219  A    between atoms: _512  and  _515
REMARK  220  A    between atoms: _515  and  _516
REMARK  221  A    between atoms: _519  and  _521
REMARK  222  A    between atoms: _521  and  _522
REMARK  223  A    between atoms: _521  and  _524
REMARK  224  A    between atoms: _524  and  _525
REMARK  225  A    between atoms: _528  and  _530
REMARK  226  A    between atoms: _530  and  _531
REMARK  227  A    between atoms: _530  and  _533
REMARK  228  A    between atoms: _533  and  _534
REMARK  229  A    between atoms: _537  and  _539
REMARK  230  A    between atoms: _539  and  _540
REMARK  231  A    between atoms: _539  and  _542
REMARK  232  A    between atoms: _542  and  _543
REMARK  233  A    between atoms: _543  and  _544
REMARK  234  A    between atoms: _544  and  _545
REMARK  235  A    between atoms: _545  and  _546
REMARK  236  A    between atoms: _550  and  _552
REMARK  237  A    between atoms: _552  and  _553
REMARK  238  A    between atoms: _552  and  _555
REMARK  239  A    between atoms: _555  and  _556
REMARK  240  A    between atoms: _559  and  _561
REMARK  241  A    between atoms: _561  and  _562
REMARK  242  A    between atoms: _561  and  _564
REMARK  243  A    between atoms: _564  and  _565
REMARK  244  A    between atoms: _565  and  _566
REMARK  245  A    between atoms: _569  and  _570
REMARK  246  A    between atoms: _575  and  _577
REMARK  247  A    between atoms: _577  and  _578
REMARK  248  A    between atoms: _577  and  _580
REMARK  249  A    between atoms: _580  and  _581
REMARK  250  A    between atoms: _584  and  _586
REMARK  251  A    between atoms: _586  and  _587
REMARK  252  A    between atoms: _586  and  _589
REMARK  253  A    between atoms: _589  and  _590
REMARK  254  A    between atoms: _590  and  _591
REMARK  255  A    between atoms: _591  and  _592
REMARK  256  A    between atoms: _601  and  _603
REMARK  257  A    between atoms: _603  and  _604
REMARK  258  A    between atoms: _603  and  _606
REMARK  259  A    between atoms: _606  and  _607
REMARK  260  A    between atoms: _607  and  _608
REMARK  261  A    between atoms: _610  and  _612
REMARK  262  A    between atoms: _612  and  _613
REMARK  263  A    between atoms: _612  and  _615
REMARK  264  A    between atoms: _615  and  _616
REMARK                            x       y       z     vdW  Elec       q    Type
REMARK                         _______ _______ _______ _____ _____    ______ ____
ROOT
ATOM      1  O   HOH     1      33.794  23.679  88.897  0.00  0.00    +0.000 OA
ENDROOT
TORSDOF 0
REMARK  Name = ../refined-set-2016/1fcx/1fcx_pocket.pdb
REMARK  264 active torsions:
REMARK  status: ('A' for Active; 'I' for Inactive)
REMARK    1  A    between atoms: _1  and  _3
REMARK    2  A    between atoms: _3  and  _4
REMARK    3  A    between atoms: _3  and  _6
REMARK    4  A    between atoms: _6  and  _7
REMARK    5  A    between atoms: _10  and  _12
REMARK    6  A    between atoms: _12  and  _13
REMARK    7  A    between atoms: _12  and  _15
REMARK    8  A    between atoms: _15  and  _16
REMARK    9  A    between atoms: _23  and  _24
REMARK   10  A    between atoms: _29  and  _31
REMARK   11  A    between atoms: _31  and  _32
REMARK   12  A    between atoms: _31  and  _34
REMARK   13  A    between atoms: _34  and  _35
REMARK   14  A    between atoms: _38  and  _40
REMARK   15  A    between atoms: _40  and  _41
REMARK   16  A    between atoms: _40  and  _43
REMARK   17  A    between atoms: _43  and  _44
REMARK   18  A    between atoms: _47  and  _49
REMARK   19  A    between atoms: _49  and  _50
REMARK   20  A    between atoms: _49  and  _52
REMARK   21  A    between atoms: _52  and  _53
REMARK   22  A    between atoms: _63  and  _65
REMARK   23  A    between atoms: _65  and  _66
REMARK   24  A    between atoms: _65  and  _68
REMARK   25  A    between atoms: _68  and  _69
REMARK   26  A    between atoms: _69  and  _70
REMARK   27  A    between atoms: _70  and  _71
REMARK   28  A    between atoms: _71  and  _72
REMARK   29  A    between atoms: _76  and  _78
REMARK   30  A    between atoms: _78  and  _79
REMARK   31  A    between atoms: _78  and  _81
REMARK   32  A    between atoms: _81  and  _82
REMARK   33  A    between atoms: _88  and  _90
REMARK   34  A    between atoms: _90  and  _91
REMARK   35  A    between atoms: _90  and  _93
REMARK   36  A    between atoms: _93  and  _94
REMARK   37  A    between atoms: _96  and  _98
REMARK   38  A    between atoms: _98  and  _99
REMARK   39  A    between atoms: _98  and  _101
REMARK   40  A    between atoms: _101  and  _102
REMARK   41  A    between atoms: _102  and  _103
REMARK   42  A    between atoms: _106  and  _108
REMARK   43  A    between atoms: _108  and  _109
REMARK   44  A    between atoms: _108  and  _111
REMARK   45  A    between atoms: _111  and  _112
REMARK   46  A    between atoms: _115  and  _117
REMARK   47  A    between atoms: _117  and  _118
REMARK   48  A    between atoms: _121  and  _123
REMARK   49  A    between atoms: _123  and  _124
REMARK   50  A    between atoms: _123  and  _126
REMARK   51  A    between atoms: _126  and  _127
REMARK   52  A    between atoms: _130  and  _132
REMARK   53  A    between atoms: _132  and  _133
REMARK   54  A    between atoms: _132  and  _135
REMARK   55  A    between atoms: _135  and  _136
REMARK   56  A    between atoms: _136  and  _137
REMARK   57  A    between atoms: _137  and  _138
REMARK   58  A    between atoms: _138  and  _139
REMARK   59  A    between atoms: _143  and  _145
REMARK   60  A    between atoms: _145  and  _146
REMARK   61  A    between atoms: _145  and  _148
REMARK   62  A    between atoms: _150  and  _152
REMARK   63  A    between atoms: _152  and  _153
REMARK   64  A    between atoms: _152  and  _155
REMARK   65  A    between atoms: _155  and  _156
REMARK   66  A    between atoms: _159  and  _161
REMARK   67  A    between atoms: _161  and  _162
REMARK   68  A    between atoms: _161  and  _164
REMARK   69  A    between atoms: _164  and  _165
REMARK   70  A    between atoms: _165  and  _166
REMARK   71  A    between atoms: _166  and  _167
REMARK   72  A    between atoms: _167  and  _168
REMARK   73  A    between atoms: _172  and  _174
REMARK   74  A    between atoms: _174  and  _175
REMARK   75  A    between atoms: _174  and  _177
REMARK   76  A    between atoms: _177  and  _178
REMARK   77  A    between atoms: _181  and  _183
REMARK   78  A    between atoms: _183  and  _184
REMARK   79  A    between atoms: _183  and  _186
REMARK   80  A    between atoms: _188  and  _190
REMARK   81  A    between atoms: _190  and  _191
REMARK   82  A    between atoms: _190  and  _193
REMARK   83  A    between atoms: _193  and  _194
REMARK   84  A    between atoms: _197  and  _199
REMARK   85  A    between atoms: _199  and  _200
REMARK   86  A    between atoms: _199  and  _202
REMARK   87  A    between atoms: _202  and  _203
REMARK   88  A    between atoms: _206  and  _208
REMARK   89  A    between atoms: _208  and  _209
REMARK   90  A    between atoms: _208  and  _211
REMARK   91  A    between atoms: _211  and  _212
REMARK   92  A    between atoms: _215  and  _217
REMARK   93  A    between atoms: _217  and  _218
REMARK   94  A    between atoms: _217  and  _220
REMARK   95  A    between atoms: _220  and  _221
REMARK   96  A    between atoms: _224  and  _226
REMARK   97  A    between atoms: _226  and  _227
REMARK   98  A    between atoms: _226  and  _229
REMARK   99  A    between atoms: _229  and  _230
REMARK  100  A    between atoms: _230  and  _231
REMARK  101  A    between atoms: _233  and  _235
REMARK  102  A    between atoms: _235  and  _236
REMARK  103  A    between atoms: _235  and  _238
REMARK  104  A    between atoms: _238  and  _239
REMARK  105  A    between atoms: _242  and  _244
REMARK  106  A    between atoms: _244  and  _245
REMARK  107  A    between atoms: _244  and  _247
REMARK  108  A    between atoms: _247  and  _248
REMARK  109  A    between atoms: _248  and  _249
REMARK  110  A    between atoms: _249  and  _250
REMARK  111  A    between atoms: _259  and  _261
REMARK  112  A    between atoms: _261  and  _262
REMARK  113  A    between atoms: _261  and  _264
REMARK  114  A    between atoms: _264  and  _265
REMARK  115  A    between atoms: _268  and  _270
REMARK  116  A    between atoms: _270  and  _271
REMARK  117  A    between atoms: _270  and  _273
REMARK  118  A    between atoms: _275  and  _277
REMARK  119  A    between atoms: _277  and  _278
REMARK  120  A    between atoms: _277  and  _280
REMARK  121  A    between atoms: _280  and  _281
REMARK  122  A    between atoms: _284  and  _286
REMARK  123  A    between atoms: _286  and  _287
REMARK  124  A    between atoms: _286  and  _289
REMARK  125  A    between atoms: _289  and  _290
REMARK  126  A    between atoms: _290  and  _291
REMARK  127  A    between atoms: _291  and  _292
REMARK  128  A    between atoms: _301  and  _303
REMARK  129  A    between atoms: _303  and  _304
REMARK  130  A    between atoms: _303  and  _306
REMARK  131  A    between atoms: _306  and  _307
REMARK  132  A    between atoms: _307  and  _308
REMARK  133  A    between atoms: _310  and  _312
REMARK  134  A    between atoms: _312  and  _313
REMARK  135  A    between atoms: _312  and  _315
REMARK  136  A    between atoms: _315  and  _316
REMARK  137  A    between atoms: _319  and  _321
REMARK  138  A    between atoms: _321  and  _322
REMARK  139  A    between atoms: _321  and  _324
REMARK  140  A    between atoms: _324  and  _325
REMARK  141  A    between atoms: _331  and  _333
REMARK  142  A    between atoms: _333  and  _334
REMARK  143  A    between atoms: _333  and  _336
REMARK  144  A    between atoms: _336  and  _337
REMARK  145  A    between atoms: _339  and  _341
REMARK  146  A    between atoms: _341  and  _342
REMARK  147  A    between atoms: _341  and  _344
REMARK  148  A    between atoms: _344  and  _345
REMARK  149  A    between atoms: _348  and  _350
REMARK  150  A    between atoms: _350  and  _351
REMARK  151  A    between atoms: _353  and  _355
REMARK  152  A    between atoms: _355  and  _356
REMARK  153  A    between atoms: _355  and  _358
REMARK  154  A    between atoms: _358  and  _359
REMARK  155  A    between atoms: _362  and  _364
REMARK  156  A    between atoms: _364  and  _365
REMARK  157  A    between atoms: _364  and  _367
REMARK  158  A    between atoms: _367  and  _368
REMARK  159  A    between atoms: _368  and  _369
REMARK  160  A    between atoms: _371  and  _373
REMARK  161  A    between atoms: _373  and  _374
REMARK  162  A    between atoms: _373  and  _376
REMARK  163  A    between atoms: _376  and  _377
REMARK  164  A    between atoms: _382  and  _384
REMARK  165  A    between atoms: _384  and  _385
REMARK  166  A    between atoms: _388  and  _390
REMARK  167  A    between atoms: _390  and  _391
REMARK  168  A    between atoms: _393  and  _395
REMARK  169  A    between atoms: _395  and  _396
REMARK  170  A    between atoms: _395  and  _398
REMARK  171  A    between atoms: _398  and  _399
REMARK  172  A    between atoms: _405  and  _407
REMARK  173  A    between atoms: _407  and  _408
REMARK  174  A    between atoms: _410  and  _412
REMARK  175  A    between atoms: _412  and  _413
REMARK  176  A    between atoms: _412  and  _415
REMARK  177  A    between atoms: _415  and  _416
REMARK  178  A    between atoms: _419  and  _421
REMARK  179  A    between atoms: _421  and  _422
REMARK  180  A    between atoms: _421  and  _424
REMARK  181  A    between atoms: _424  and  _425
REMARK  182  A    between atoms: _428  and  _430
REMARK  183  A    between atoms: _430  and  _431
REMARK  184  A    between atoms: _430  and  _433
REMARK  185  A    between atoms: _436  and  _438
REMARK  186  A    between atoms: _438  and  _439
REMARK  187  A    between atoms: _438  and  _441
REMARK  188  A    between atoms: _441  and  _442
REMARK  189  A    between atoms: _445  and  _447
REMARK  190  A    between atoms: _447  and  _448
REMARK  191  A    between atoms: _447  and  _450
REMARK  192  A    between atoms: _450  and  _451
REMARK  193  A    between atoms: _453  and  _455
REMARK  194  A    between atoms: _455  and  _456
REMARK  195  A    between atoms: _455  and  _458
REMARK  196  A    between atoms: _458  and  _459
REMARK  197  A    between atoms: _459  and  _460
REMARK  198  A    between atoms: _460  and  _461
REMARK  199  A    between atoms: _461  and  _462
REMARK  200  A    between atoms: _466  and  _468
REMARK  201  A    between atoms: _468  and  _469
REMARK  202  A    between atoms: _471  and  _473
REMARK  203  A    between atoms: _473  and  _474
REMARK  204  A    between atoms: _477  and  _479
REMARK  205  A    between atoms: _479  and  _480
REMARK  206  A    between atoms: _479  and  _482
REMARK  207  A    between atoms: _482  and  _483
REMARK  208  A    between atoms: _483  and  _484
REMARK  209  A    between atoms: _487  and  _489
REMARK  210  A    between atoms: _489  and  _490
REMARK  211  A    between atoms: _489  and  _492
REMARK  212  A    between atoms: _492  and  _493
REMARK  213  A    between atoms: _493  and  _494
REMARK  214  A    between atoms: _494  and  _495
REMARK  215  A    between atoms: _504  and  _506
REMARK  216  A    between atoms: _506  and  _507
REMARK  217  A    between atoms: _510  and  _512
REMARK  218  A    between atoms: _512  and  _513
REMARK  219  A    between atoms: _512  and  _515
REMARK  220  A    between atoms: _515  and  _516
REMARK  221  A    between atoms: _519  and  _521
REMARK  222  A    between atoms: _521  and  _522
REMARK  223  A    between atoms: _521  and  _524
REMARK  224  A    between atoms: _524  and  _525
REMARK  225  A    between atoms: _528  and  _530
REMARK  226  A    between atoms: _530  and  _531
REMARK  227  A    between atoms: _530  and  _533
REMARK  228  A    between atoms: _533  and  _534
REMARK  229  A    between atoms: _537  and  _539
REMARK  230  A    between atoms: _539  and  _540
REMARK  231  A    between atoms: _539  and  _542
REMARK  232  A    between atoms: _542  and  _543
REMARK  233  A    between atoms: _543  and  _544
REMARK  234  A    between atoms: _544  and  _545
REMARK  235  A    between atoms: _545  and  _546
REMARK  236  A    between atoms: _550  and  _552
REMARK  237  A    between atoms: _552  and  _553
REMARK  238  A    between atoms: _552  and  _555
REMARK  239  A    between atoms: _555  and  _556
REMARK  240  A    between atoms: _559  and  _561
REMARK  241  A    between atoms: _561  and  _562
REMARK  242  A    between atoms: _561  and  _564
REMARK  243  A    between atoms: _564  and  _565
REMARK  244  A    between atoms: _565  and  _566
REMARK  245  A    between atoms: _569  and  _570
REMARK  246  A    between atoms: _575  and  _577
REMARK  247  A    between atoms: _577  and  _578
REMARK  248  A    between atoms: _577  and  _580
REMARK  249  A    between atoms: _580  and  _581
REMARK  250  A    between atoms: _584  and  _586
REMARK  251  A    between atoms: _586  and  _587
REMARK  252  A    between atoms: _586  and  _589
REMARK  253  A    between atoms: _589  and  _590
REMARK  254  A    between atoms: _590  and  _591
REMARK  255  A    between atoms: _591  and  _592
REMARK  256  A    between atoms: _601  and  _603
REMARK  257  A    between atoms: _603  and  _604
REMARK  258  A    between atoms: _603  and  _606
REMARK  259  A    between atoms: _606  and  _607
REMARK  260  A    between atoms: _607  and  _608
REMARK  261  A    between atoms: _610  and  _612
REMARK  262  A    between atoms: _612  and  _613
REMARK  263  A    between atoms: _612  and  _615
REMARK  264  A    between atoms: _615  and  _616
REMARK                            x       y       z     vdW  Elec       q    Type
REMARK                         _______ _______ _______ _____ _____    ______ ____
ROOT
ATOM      1  O   HOH     1      34.508  23.712  91.753  0.00  0.00    +0.000 OA
ENDROOT
TORSDOF 0
REMARK  Name = ../refined-set-2016/1fcx/1fcx_pocket.pdb
REMARK  264 active torsions:
REMARK  status: ('A' for Active; 'I' for Inactive)
REMARK    1  A    between atoms: _1  and  _3
REMARK    2  A    between atoms: _3  and  _4
REMARK    3  A    between atoms: _3  and  _6
REMARK    4  A    between atoms: _6  and  _7
REMARK    5  A    between atoms: _10  and  _12
REMARK    6  A    between atoms: _12  and  _13
REMARK    7  A    between atoms: _12  and  _15
REMARK    8  A    between atoms: _15  and  _16
REMARK    9  A    between atoms: _23  and  _24
REMARK   10  A    between atoms: _29  and  _31
REMARK   11  A    between atoms: _31  and  _32
REMARK   12  A    between atoms: _31  and  _34
REMARK   13  A    between atoms: _34  and  _35
REMARK   14  A    between atoms: _38  and  _40
REMARK   15  A    between atoms: _40  and  _41
REMARK   16  A    between atoms: _40  and  _43
REMARK   17  A    between atoms: _43  and  _44
REMARK   18  A    between atoms: _47  and  _49
REMARK   19  A    between atoms: _49  and  _50
REMARK   20  A    between atoms: _49  and  _52
REMARK   21  A    between atoms: _52  and  _53
REMARK   22  A    between atoms: _63  and  _65
REMARK   23  A    between atoms: _65  and  _66
REMARK   24  A    between atoms: _65  and  _68
REMARK   25  A    between atoms: _68  and  _69
REMARK   26  A    between atoms: _69  and  _70
REMARK   27  A    between atoms: _70  and  _71
REMARK   28  A    between atoms: _71  and  _72
REMARK   29  A    between atoms: _76  and  _78
REMARK   30  A    between atoms: _78  and  _79
REMARK   31  A    between atoms: _78  and  _81
REMARK   32  A    between atoms: _81  and  _82
REMARK   33  A    between atoms: _88  and  _90
REMARK   34  A    between atoms: _90  and  _91
REMARK   35  A    between atoms: _90  and  _93
REMARK   36  A    between atoms: _93  and  _94
REMARK   37  A    between atoms: _96  and  _98
REMARK   38  A    between atoms: _98  and  _99
REMARK   39  A    between atoms: _98  and  _101
REMARK   40  A    between atoms: _101  and  _102
REMARK   41  A    between atoms: _102  and  _103
REMARK   42  A    between atoms: _106  and  _108
REMARK   43  A    between atoms: _108  and  _109
REMARK   44  A    between atoms: _108  and  _111
REMARK   45  A    between atoms: _111  and  _112
REMARK   46  A    between atoms: _115  and  _117
REMARK   47  A    between atoms: _117  and  _118
REMARK   48  A    between atoms: _121  and  _123
REMARK   49  A    between atoms: _123  and  _124
REMARK   50  A    between atoms: _123  and  _126
REMARK   51  A    between atoms: _126  and  _127
REMARK   52  A    between atoms: _130  and  _132
REMARK   53  A    between atoms: _132  and  _133
REMARK   54  A    between atoms: _132  and  _135
REMARK   55  A    between atoms: _135  and  _136
REMARK   56  A    between atoms: _136  and  _137
REMARK   57  A    between atoms: _137  and  _138
REMARK   58  A    between atoms: _138  and  _139
REMARK   59  A    between atoms: _143  and  _145
REMARK   60  A    between atoms: _145  and  _146
REMARK   61  A    between atoms: _145  and  _148
REMARK   62  A    between atoms: _150  and  _152
REMARK   63  A    between atoms: _152  and  _153
REMARK   64  A    between atoms: _152  and  _155
REMARK   65  A    between atoms: _155  and  _156
REMARK   66  A    between atoms: _159  and  _161
REMARK   67  A    between atoms: _161  and  _162
REMARK   68  A    between atoms: _161  and  _164
REMARK   69  A    between atoms: _164  and  _165
REMARK   70  A    between atoms: _165  and  _166
REMARK   71  A    between atoms: _166  and  _167
REMARK   72  A    between atoms: _167  and  _168
REMARK   73  A    between atoms: _172  and  _174
REMARK   74  A    between atoms: _174  and  _175
REMARK   75  A    between atoms: _174  and  _177
REMARK   76  A    between atoms: _177  and  _178
REMARK   77  A    between atoms: _181  and  _183
REMARK   78  A    between atoms: _183  and  _184
REMARK   79  A    between atoms: _183  and  _186
REMARK   80  A    between atoms: _188  and  _190
REMARK   81  A    between atoms: _190  and  _191
REMARK   82  A    between atoms: _190  and  _193
REMARK   83  A    between atoms: _193  and  _194
REMARK   84  A    between atoms: _197  and  _199
REMARK   85  A    between atoms: _199  and  _200
REMARK   86  A    between atoms: _199  and  _202
REMARK   87  A    between atoms: _202  and  _203
REMARK   88  A    between atoms: _206  and  _208
REMARK   89  A    between atoms: _208  and  _209
REMARK   90  A    between atoms: _208  and  _211
REMARK   91  A    between atoms: _211  and  _212
REMARK   92  A    between atoms: _215  and  _217
REMARK   93  A    between atoms: _217  and  _218
REMARK   94  A    between atoms: _217  and  _220
REMARK   95  A    between atoms: _220  and  _221
REMARK   96  A    between atoms: _224  and  _226
REMARK   97  A    between atoms: _226  and  _227
REMARK   98  A    between atoms: _226  and  _229
REMARK   99  A    between atoms: _229  and  _230
REMARK  100  A    between atoms: _230  and  _231
REMARK  101  A    between atoms: _233  and  _235
REMARK  102  A    between atoms: _235  and  _236
REMARK  103  A    between atoms: _235  and  _238
REMARK  104  A    between atoms: _238  and  _239
REMARK  105  A    between atoms: _242  and  _244
REMARK  106  A    between atoms: _244  and  _245
REMARK  107  A    between atoms: _244  and  _247
REMARK  108  A    between atoms: _247  and  _248
REMARK  109  A    between atoms: _248  and  _249
REMARK  110  A    between atoms: _249  and  _250
REMARK  111  A    between atoms: _259  and  _261
REMARK  112  A    between atoms: _261  and  _262
REMARK  113  A    between atoms: _261  and  _264
REMARK  114  A    between atoms: _264  and  _265
REMARK  115  A    between atoms: _268  and  _270
REMARK  116  A    between atoms: _270  and  _271
REMARK  117  A    between atoms: _270  and  _273
REMARK  118  A    between atoms: _275  and  _277
REMARK  119  A    between atoms: _277  and  _278
REMARK  120  A    between atoms: _277  and  _280
REMARK  121  A    between atoms: _280  and  _281
REMARK  122  A    between atoms: _284  and  _286
REMARK  123  A    between atoms: _286  and  _287
REMARK  124  A    between atoms: _286  and  _289
REMARK  125  A    between atoms: _289  and  _290
REMARK  126  A    between atoms: _290  and  _291
REMARK  127  A    between atoms: _291  and  _292
REMARK  128  A    between atoms: _301  and  _303
REMARK  129  A    between atoms: _303  and  _304
REMARK  130  A    between atoms: _303  and  _306
REMARK  131  A    between atoms: _306  and  _307
REMARK  132  A    between atoms: _307  and  _308
REMARK  133  A    between atoms: _310  and  _312
REMARK  134  A    between atoms: _312  and  _313
REMARK  135  A    between atoms: _312  and  _315
REMARK  136  A    between atoms: _315  and  _316
REMARK  137  A    between atoms: _319  and  _321
REMARK  138  A    between atoms: _321  and  _322
REMARK  139  A    between atoms: _321  and  _324
REMARK  140  A    between atoms: _324  and  _325
REMARK  141  A    between atoms: _331  and  _333
REMARK  142  A    between atoms: _333  and  _334
REMARK  143  A    between atoms: _333  and  _336
REMARK  144  A    between atoms: _336  and  _337
REMARK  145  A    between atoms: _339  and  _341
REMARK  146  A    between atoms: _341  and  _342
REMARK  147  A    between atoms: _341  and  _344
REMARK  148  A    between atoms: _344  and  _345
REMARK  149  A    between atoms: _348  and  _350
REMARK  150  A    between atoms: _350  and  _351
REMARK  151  A    between atoms: _353  and  _355
REMARK  152  A    between atoms: _355  and  _356
REMARK  153  A    between atoms: _355  and  _358
REMARK  154  A    between atoms: _358  and  _359
REMARK  155  A    between atoms: _362  and  _364
REMARK  156  A    between atoms: _364  and  _365
REMARK  157  A    between atoms: _364  and  _367
REMARK  158  A    between atoms: _367  and  _368
REMARK  159  A    between atoms: _368  and  _369
REMARK  160  A    between atoms: _371  and  _373
REMARK  161  A    between atoms: _373  and  _374
REMARK  162  A    between atoms: _373  and  _376
REMARK  163  A    between atoms: _376  and  _377
REMARK  164  A    between atoms: _382  and  _384
REMARK  165  A    between atoms: _384  and  _385
REMARK  166  A    between atoms: _388  and  _390
REMARK  167  A    between atoms: _390  and  _391
REMARK  168  A    between atoms: _393  and  _395
REMARK  169  A    between atoms: _395  and  _396
REMARK  170  A    between atoms: _395  and  _398
REMARK  171  A    between atoms: _398  and  _399
REMARK  172  A    between atoms: _405  and  _407
REMARK  173  A    between atoms: _407  and  _408
REMARK  174  A    between atoms: _410  and  _412
REMARK  175  A    between atoms: _412  and  _413
REMARK  176  A    between atoms: _412  and  _415
REMARK  177  A    between atoms: _415  and  _416
REMARK  178  A    between atoms: _419  and  _421
REMARK  179  A    between atoms: _421  and  _422
REMARK  180  A    between atoms: _421  and  _424
REMARK  181  A    between atoms: _424  and  _425
REMARK  182  A    between atoms: _428  and  _430
REMARK  183  A    between atoms: _430  and  _431
REMARK  184  A    between atoms: _430  and  _433
REMARK  185  A    between atoms: _436  and  _438
REMARK  186  A    between atoms: _438  and  _439
REMARK  187  A    between atoms: _438  and  _441
REMARK  188  A    between atoms: _441  and  _442
REMARK  189  A    between atoms: _445  and  _447
REMARK  190  A    between atoms: _447  and  _448
REMARK  191  A    between atoms: _447  and  _450
REMARK  192  A    between atoms: _450  and  _451
REMARK  193  A    between atoms: _453  and  _455
REMARK  194  A    between atoms: _455  and  _456
REMARK  195  A    between atoms: _455  and  _458
REMARK  196  A    between atoms: _458  and  _459
REMARK  197  A    between atoms: _459  and  _460
REMARK  198  A    between atoms: _460  and  _461
REMARK  199  A    between atoms: _461  and  _462
REMARK  200  A    between atoms: _466  and  _468
REMARK  201  A    between atoms: _468  and  _469
REMARK  202  A    between atoms: _471  and  _473
REMARK  203  A    between atoms: _473  and  _474
REMARK  204  A    between atoms: _477  and  _479
REMARK  205  A    between atoms: _479  and  _480
REMARK  206  A    between atoms: _479  and  _482
REMARK  207  A    between atoms: _482  and  _483
REMARK  208  A    between atoms: _483  and  _484
REMARK  209  A    between atoms: _487  and  _489
REMARK  210  A    between atoms: _489  and  _490
REMARK  211  A    between atoms: _489  and  _492
REMARK  212  A    between atoms: _492  and  _493
REMARK  213  A    between atoms: _493  and  _494
REMARK  214  A    between atoms: _494  and  _495
REMARK  215  A    between atoms: _504  and  _506
REMARK  216  A    between atoms: _506  and  _507
REMARK  217  A    between atoms: _510  and  _512
REMARK  218  A    between atoms: _512  and  _513
REMARK  219  A    between atoms: _512  and  _515
REMARK  220  A    between atoms: _515  and  _516
REMARK  221  A    between atoms: _519  and  _521
REMARK  222  A    between atoms: _521  and  _522
REMARK  223  A    between atoms: _521  and  _524
REMARK  224  A    between atoms: _524  and  _525
REMARK  225  A    between atoms: _528  and  _530
REMARK  226  A    between atoms: _530  and  _531
REMARK  227  A    between atoms: _530  and  _533
REMARK  228  A    between atoms: _533  and  _534
REMARK  229  A    between atoms: _537  and  _539
REMARK  230  A    between atoms: _539  and  _540
REMARK  231  A    between atoms: _539  and  _542
REMARK  232  A    between atoms: _542  and  _543
REMARK  233  A    between atoms: _543  and  _544
REMARK  234  A    between atoms: _544  and  _545
REMARK  235  A    between atoms: _545  and  _546
REMARK  236  A    between atoms: _550  and  _552
REMARK  237  A    between atoms: _552  and  _553
REMARK  238  A    between atoms: _552  and  _555
REMARK  239  A    between atoms: _555  and  _556
REMARK  240  A    between atoms: _559  and  _561
REMARK  241  A    between atoms: _561  and  _562
REMARK  242  A    between atoms: _561  and  _564
REMARK  243  A    between atoms: _564  and  _565
REMARK  244  A    between atoms: _565  and  _566
REMARK  245  A    between atoms: _569  and  _570
REMARK  246  A    between atoms: _575  and  _577
REMARK  247  A    between atoms: _577  and  _578
REMARK  248  A    between atoms: _577  and  _580
REMARK  249  A    between atoms: _580  and  _581
REMARK  250  A    between atoms: _584  and  _586
REMARK  251  A    between atoms: _586  and  _587
REMARK  252  A    between atoms: _586  and  _589
REMARK  253  A    between atoms: _589  and  _590
REMARK  254  A    between atoms: _590  and  _591
REMARK  255  A    between atoms: _591  and  _592
REMARK  256  A    between atoms: _601  and  _603
REMARK  257  A    between atoms: _603  and  _604
REMARK  258  A    between atoms: _603  and  _606
REMARK  259  A    between atoms: _606  and  _607
REMARK  260  A    between atoms: _607  and  _608
REMARK  261  A    between atoms: _610  and  _612
REMARK  262  A    between atoms: _612  and  _613
REMARK  263  A    between atoms: _612  and  _615
REMARK  264  A    between atoms: _615  and  _616
REMARK                            x       y       z     vdW  Elec       q    Type
REMARK                         _______ _______ _______ _____ _____    ______ ____
ROOT
ATOM      1  O   HOH     1      33.477  26.058  87.848  0.00  0.00    +0.000 OA
ENDROOT
TORSDOF 0
REMARK  Name = ../refined-set-2016/1fcx/1fcx_pocket.pdb
REMARK  264 active torsions:
REMARK  status: ('A' for Active; 'I' for Inactive)
REMARK    1  A    between atoms: _1  and  _3
REMARK    2  A    between atoms: _3  and  _4
REMARK    3  A    between atoms: _3  and  _6
REMARK    4  A    between atoms: _6  and  _7
REMARK    5  A    between atoms: _10  and  _12
REMARK    6  A    between atoms: _12  and  _13
REMARK    7  A    between atoms: _12  and  _15
REMARK    8  A    between atoms: _15  and  _16
REMARK    9  A    between atoms: _23  and  _24
REMARK   10  A    between atoms: _29  and  _31
REMARK   11  A    between atoms: _31  and  _32
REMARK   12  A    between atoms: _31  and  _34
REMARK   13  A    between atoms: _34  and  _35
REMARK   14  A    between atoms: _38  and  _40
REMARK   15  A    between atoms: _40  and  _41
REMARK   16  A    between atoms: _40  and  _43
REMARK   17  A    between atoms: _43  and  _44
REMARK   18  A    between atoms: _47  and  _49
REMARK   19  A    between atoms: _49  and  _50
REMARK   20  A    between atoms: _49  and  _52
REMARK   21  A    between atoms: _52  and  _53
REMARK   22  A    between atoms: _63  and  _65
REMARK   23  A    between atoms: _65  and  _66
REMARK   24  A    between atoms: _65  and  _68
REMARK   25  A    between atoms: _68  and  _69
REMARK   26  A    between atoms: _69  and  _70
REMARK   27  A    between atoms: _70  and  _71
REMARK   28  A    between atoms: _71  and  _72
REMARK   29  A    between atoms: _76  and  _78
REMARK   30  A    between atoms: _78  and  _79
REMARK   31  A    between atoms: _78  and  _81
REMARK   32  A    between atoms: _81  and  _82
REMARK   33  A    between atoms: _88  and  _90
REMARK   34  A    between atoms: _90  and  _91
REMARK   35  A    between atoms: _90  and  _93
REMARK   36  A    between atoms: _93  and  _94
REMARK   37  A    between atoms: _96  and  _98
REMARK   38  A    between atoms: _98  and  _99
REMARK   39  A    between atoms: _98  and  _101
REMARK   40  A    between atoms: _101  and  _102
REMARK   41  A    between atoms: _102  and  _103
REMARK   42  A    between atoms: _106  and  _108
REMARK   43  A    between atoms: _108  and  _109
REMARK   44  A    between atoms: _108  and  _111
REMARK   45  A    between atoms: _111  and  _112
REMARK   46  A    between atoms: _115  and  _117
REMARK   47  A    between atoms: _117  and  _118
REMARK   48  A    between atoms: _121  and  _123
REMARK   49  A    between atoms: _123  and  _124
REMARK   50  A    between atoms: _123  and  _126
REMARK   51  A    between atoms: _126  and  _127
REMARK   52  A    between atoms: _130  and  _132
REMARK   53  A    between atoms: _132  and  _133
REMARK   54  A    between atoms: _132  and  _135
REMARK   55  A    between atoms: _135  and  _136
REMARK   56  A    between atoms: _136  and  _137
REMARK   57  A    between atoms: _137  and  _138
REMARK   58  A    between atoms: _138  and  _139
REMARK   59  A    between atoms: _143  and  _145
REMARK   60  A    between atoms: _145  and  _146
REMARK   61  A    between atoms: _145  and  _148
REMARK   62  A    between atoms: _150  and  _152
REMARK   63  A    between atoms: _152  and  _153
REMARK   64  A    between atoms: _152  and  _155
REMARK   65  A    between atoms: _155  and  _156
REMARK   66  A    between atoms: _159  and  _161
REMARK   67  A    between atoms: _161  and  _162
REMARK   68  A    between atoms: _161  and  _164
REMARK   69  A    between atoms: _164  and  _165
REMARK   70  A    between atoms: _165  and  _166
REMARK   71  A    between atoms: _166  and  _167
REMARK   72  A    between atoms: _167  and  _168
REMARK   73  A    between atoms: _172  and  _174
REMARK   74  A    between atoms: _174  and  _175
REMARK   75  A    between atoms: _174  and  _177
REMARK   76  A    between atoms: _177  and  _178
REMARK   77  A    between atoms: _181  and  _183
REMARK   78  A    between atoms: _183  and  _184
REMARK   79  A    between atoms: _183  and  _186
REMARK   80  A    between atoms: _188  and  _190
REMARK   81  A    between atoms: _190  and  _191
REMARK   82  A    between atoms: _190  and  _193
REMARK   83  A    between atoms: _193  and  _194
REMARK   84  A    between atoms: _197  and  _199
REMARK   85  A    between atoms: _199  and  _200
REMARK   86  A    between atoms: _199  and  _202
REMARK   87  A    between atoms: _202  and  _203
REMARK   88  A    between atoms: _206  and  _208
REMARK   89  A    between atoms: _208  and  _209
REMARK   90  A    between atoms: _208  and  _211
REMARK   91  A    between atoms: _211  and  _212
REMARK   92  A    between atoms: _215  and  _217
REMARK   93  A    between atoms: _217  and  _218
REMARK   94  A    between atoms: _217  and  _220
REMARK   95  A    between atoms: _220  and  _221
REMARK   96  A    between atoms: _224  and  _226
REMARK   97  A    between atoms: _226  and  _227
REMARK   98  A    between atoms: _226  and  _229
REMARK   99  A    between atoms: _229  and  _230
REMARK  100  A    between atoms: _230  and  _231
REMARK  101  A    between atoms: _233  and  _235
REMARK  102  A    between atoms: _235  and  _236
REMARK  103  A    between atoms: _235  and  _238
REMARK  104  A    between atoms: _238  and  _239
REMARK  105  A    between atoms: _242  and  _244
REMARK  106  A    between atoms: _244  and  _245
REMARK  107  A    between atoms: _244  and  _247
REMARK  108  A    between atoms: _247  and  _248
REMARK  109  A    between atoms: _248  and  _249
REMARK  110  A    between atoms: _249  and  _250
REMARK  111  A    between atoms: _259  and  _261
REMARK  112  A    between atoms: _261  and  _262
REMARK  113  A    between atoms: _261  and  _264
REMARK  114  A    between atoms: _264  and  _265
REMARK  115  A    between atoms: _268  and  _270
REMARK  116  A    between atoms: _270  and  _271
REMARK  117  A    between atoms: _270  and  _273
REMARK  118  A    between atoms: _275  and  _277
REMARK  119  A    between atoms: _277  and  _278
REMARK  120  A    between atoms: _277  and  _280
REMARK  121  A    between atoms: _280  and  _281
REMARK  122  A    between atoms: _284  and  _286
REMARK  123  A    between atoms: _286  and  _287
REMARK  124  A    between atoms: _286  and  _289
REMARK  125  A    between atoms: _289  and  _290
REMARK  126  A    between atoms: _290  and  _291
REMARK  127  A    between atoms: _291  and  _292
REMARK  128  A    between atoms: _301  and  _303
REMARK  129  A    between atoms: _303  and  _304
REMARK  130  A    between atoms: _303  and  _306
REMARK  131  A    between atoms: _306  and  _307
REMARK  132  A    between atoms: _307  and  _308
REMARK  133  A    between atoms: _310  and  _312
REMARK  134  A    between atoms: _312  and  _313
REMARK  135  A    between atoms: _312  and  _315
REMARK  136  A    between atoms: _315  and  _316
REMARK  137  A    between atoms: _319  and  _321
REMARK  138  A    between atoms: _321  and  _322
REMARK  139  A    between atoms: _321  and  _324
REMARK  140  A    between atoms: _324  and  _325
REMARK  141  A    between atoms: _331  and  _333
REMARK  142  A    between atoms: _333  and  _334
REMARK  143  A    between atoms: _333  and  _336
REMARK  144  A    between atoms: _336  and  _337
REMARK  145  A    between atoms: _339  and  _341
REMARK  146  A    between atoms: _341  and  _342
REMARK  147  A    between atoms: _341  and  _344
REMARK  148  A    between atoms: _344  and  _345
REMARK  149  A    between atoms: _348  and  _350
REMARK  150  A    between atoms: _350  and  _351
REMARK  151  A    between atoms: _353  and  _355
REMARK  152  A    between atoms: _355  and  _356
REMARK  153  A    between atoms: _355  and  _358
REMARK  154  A    between atoms: _358  and  _359
REMARK  155  A    between atoms: _362  and  _364
REMARK  156  A    between atoms: _364  and  _365
REMARK  157  A    between atoms: _364  and  _367
REMARK  158  A    between atoms: _367  and  _368
REMARK  159  A    between atoms: _368  and  _369
REMARK  160  A    between atoms: _371  and  _373
REMARK  161  A    between atoms: _373  and  _374
REMARK  162  A    between atoms: _373  and  _376
REMARK  163  A    between atoms: _376  and  _377
REMARK  164  A    between atoms: _382  and  _384
REMARK  165  A    between atoms: _384  and  _385
REMARK  166  A    between atoms: _388  and  _390
REMARK  167  A    between atoms: _390  and  _391
REMARK  168  A    between atoms: _393  and  _395
REMARK  169  A    between atoms: _395  and  _396
REMARK  170  A    between atoms: _395  and  _398
REMARK  171  A    between atoms: _398  and  _399
REMARK  172  A    between atoms: _405  and  _407
REMARK  173  A    between atoms: _407  and  _408
REMARK  174  A    between atoms: _410  and  _412
REMARK  175  A    between atoms: _412  and  _413
REMARK  176  A    between atoms: _412  and  _415
REMARK  177  A    between atoms: _415  and  _416
REMARK  178  A    between atoms: _419  and  _421
REMARK  179  A    between atoms: _421  and  _422
REMARK  180  A    between atoms: _421  and  _424
REMARK  181  A    between atoms: _424  and  _425
REMARK  182  A    between atoms: _428  and  _430
REMARK  183  A    between atoms: _430  and  _431
REMARK  184  A    between atoms: _430  and  _433
REMARK  185  A    between atoms: _436  and  _438
REMARK  186  A    between atoms: _438  and  _439
REMARK  187  A    between atoms: _438  and  _441
REMARK  188  A    between atoms: _441  and  _442
REMARK  189  A    between atoms: _445  and  _447
REMARK  190  A    between atoms: _447  and  _448
REMARK  191  A    between atoms: _447  and  _450
REMARK  192  A    between atoms: _450  and  _451
REMARK  193  A    between atoms: _453  and  _455
REMARK  194  A    between atoms: _455  and  _456
REMARK  195  A    between atoms: _455  and  _458
REMARK  196  A    between atoms: _458  and  _459
REMARK  197  A    between atoms: _459  and  _460
REMARK  198  A    between atoms: _460  and  _461
REMARK  199  A    between atoms: _461  and  _462
REMARK  200  A    between atoms: _466  and  _468
REMARK  201  A    between atoms: _468  and  _469
REMARK  202  A    between atoms: _471  and  _473
REMARK  203  A    between atoms: _473  and  _474
REMARK  204  A    between atoms: _477  and  _479
REMARK  205  A    between atoms: _479  and  _480
REMARK  206  A    between atoms: _479  and  _482
REMARK  207  A    between atoms: _482  and  _483
REMARK  208  A    between atoms: _483  and  _484
REMARK  209  A    between atoms: _487  and  _489
REMARK  210  A    between atoms: _489  and  _490
REMARK  211  A    between atoms: _489  and  _492
REMARK  212  A    between atoms: _492  and  _493
REMARK  213  A    between atoms: _493  and  _494
REMARK  214  A    between atoms: _494  and  _495
REMARK  215  A    between atoms: _504  and  _506
REMARK  216  A    between atoms: _506  and  _507
REMARK  217  A    between atoms: _510  and  _512
REMARK  218  A    between atoms: _512  and  _513
REMARK  219  A    between atoms: _512  and  _515
REMARK  220  A    between atoms: _515  and  _516
REMARK  221  A    between atoms: _519  and  _521
REMARK  222  A    between atoms: _521  and  _522
REMARK  223  A    between atoms: _521  and  _524
REMARK  224  A    between atoms: _524  and  _525
REMARK  225  A    between atoms: _528  and  _530
REMARK  226  A    between atoms: _530  and  _531
REMARK  227  A    between atoms: _530  and  _533
REMARK  228  A    between atoms: _533  and  _534
REMARK  229  A    between atoms: _537  and  _539
REMARK  230  A    between atoms: _539  and  _540
REMARK  231  A    between atoms: _539  and  _542
REMARK  232  A    between atoms: _542  and  _543
REMARK  233  A    between atoms: _543  and  _544
REMARK  234  A    between atoms: _544  and  _545
REMARK  235  A    between atoms: _545  and  _546
REMARK  236  A    between atoms: _550  and  _552
REMARK  237  A    between atoms: _552  and  _553
REMARK  238  A    between atoms: _552  and  _555
REMARK  239  A    between atoms: _555  and  _556
REMARK  240  A    between atoms: _559  and  _561
REMARK  241  A    between atoms: _561  and  _562
REMARK  242  A    between atoms: _561  and  _564
REMARK  243  A    between atoms: _564  and  _565
REMARK  244  A    between atoms: _565  and  _566
REMARK  245  A    between atoms: _569  and  _570
REMARK  246  A    between atoms: _575  and  _577
REMARK  247  A    between atoms: _577  and  _578
REMARK  248  A    between atoms: _577  and  _580
REMARK  249  A    between atoms: _580  and  _581
REMARK  250  A    between atoms: _584  and  _586
REMARK  251  A    between atoms: _586  and  _587
REMARK  252  A    between atoms: _586  and  _589
REMARK  253  A    between atoms: _589  and  _590
REMARK  254  A    between atoms: _590  and  _591
REMARK  255  A    between atoms: _591  and  _592
REMARK  256  A    between atoms: _601  and  _603
REMARK  257  A    between atoms: _603  and  _604
REMARK  258  A    between atoms: _603  and  _606
REMARK  259  A    between atoms: _606  and  _607
REMARK  260  A    between atoms: _607  and  _608
REMARK  261  A    between atoms: _610  and  _612
REMARK  262  A    between atoms: _612  and  _613
REMARK  263  A    between atoms: _612  and  _615
REMARK  264  A    between atoms: _615  and  _616
REMARK                            x       y       z     vdW  Elec       q    Type
REMARK                         _______ _______ _______ _____ _____    ______ ____
ROOT
ATOM      1  O   HOH     1      52.179  12.400  81.702  0.00  0.00    +0.000 OA
ENDROOT
TORSDOF 0
REMARK  Name = ../refined-set-2016/1fcx/1fcx_pocket.pdb
REMARK  264 active torsions:
REMARK  status: ('A' for Active; 'I' for Inactive)
REMARK    1  A    between atoms: _1  and  _3
REMARK    2  A    between atoms: _3  and  _4
REMARK    3  A    between atoms: _3  and  _6
REMARK    4  A    between atoms: _6  and  _7
REMARK    5  A    between atoms: _10  and  _12
REMARK    6  A    between atoms: _12  and  _13
REMARK    7  A    between atoms: _12  and  _15
REMARK    8  A    between atoms: _15  and  _16
REMARK    9  A    between atoms: _23  and  _24
REMARK   10  A    between atoms: _29  and  _31
REMARK   11  A    between atoms: _31  and  _32
REMARK   12  A    between atoms: _31  and  _34
REMARK   13  A    between atoms: _34  and  _35
REMARK   14  A    between atoms: _38  and  _40
REMARK   15  A    between atoms: _40  and  _41
REMARK   16  A    between atoms: _40  and  _43
REMARK   17  A    between atoms: _43  and  _44
REMARK   18  A    between atoms: _47  and  _49
REMARK   19  A    between atoms: _49  and  _50
REMARK   20  A    between atoms: _49  and  _52
REMARK   21  A    between atoms: _52  and  _53
REMARK   22  A    between atoms: _63  and  _65
REMARK   23  A    between atoms: _65  and  _66
REMARK   24  A    between atoms: _65  and  _68
REMARK   25  A    between atoms: _68  and  _69
REMARK   26  A    between atoms: _69  and  _70
REMARK   27  A    between atoms: _70  and  _71
REMARK   28  A    between atoms: _71  and  _72
REMARK   29  A    between atoms: _76  and  _78
REMARK   30  A    between atoms: _78  and  _79
REMARK   31  A    between atoms: _78  and  _81
REMARK   32  A    between atoms: _81  and  _82
REMARK   33  A    between atoms: _88  and  _90
REMARK   34  A    between atoms: _90  and  _91
REMARK   35  A    between atoms: _90  and  _93
REMARK   36  A    between atoms: _93  and  _94
REMARK   37  A    between atoms: _96  and  _98
REMARK   38  A    between atoms: _98  and  _99
REMARK   39  A    between atoms: _98  and  _101
REMARK   40  A    between atoms: _101  and  _102
REMARK   41  A    between atoms: _102  and  _103
REMARK   42  A    between atoms: _106  and  _108
REMARK   43  A    between atoms: _108  and  _109
REMARK   44  A    between atoms: _108  and  _111
REMARK   45  A    between atoms: _111  and  _112
REMARK   46  A    between atoms: _115  and  _117
REMARK   47  A    between atoms: _117  and  _118
REMARK   48  A    between atoms: _121  and  _123
REMARK   49  A    between atoms: _123  and  _124
REMARK   50  A    between atoms: _123  and  _126
REMARK   51  A    between atoms: _126  and  _127
REMARK   52  A    between atoms: _130  and  _132
REMARK   53  A    between atoms: _132  and  _133
REMARK   54  A    between atoms: _132  and  _135
REMARK   55  A    between atoms: _135  and  _136
REMARK   56  A    between atoms: _136  and  _137
REMARK   57  A    between atoms: _137  and  _138
REMARK   58  A    between atoms: _138  and  _139
REMARK   59  A    between atoms: _143  and  _145
REMARK   60  A    between atoms: _145  and  _146
REMARK   61  A    between atoms: _145  and  _148
REMARK   62  A    between atoms: _150  and  _152
REMARK   63  A    between atoms: _152  and  _153
REMARK   64  A    between atoms: _152  and  _155
REMARK   65  A    between atoms: _155  and  _156
REMARK   66  A    between atoms: _159  and  _161
REMARK   67  A    between atoms: _161  and  _162
REMARK   68  A    between atoms: _161  and  _164
REMARK   69  A    between atoms: _164  and  _165
REMARK   70  A    between atoms: _165  and  _166
REMARK   71  A    between atoms: _166  and  _167
REMARK   72  A    between atoms: _167  and  _168
REMARK   73  A    between atoms: _172  and  _174
REMARK   74  A    between atoms: _174  and  _175
REMARK   75  A    between atoms: _174  and  _177
REMARK   76  A    between atoms: _177  and  _178
REMARK   77  A    between atoms: _181  and  _183
REMARK   78  A    between atoms: _183  and  _184
REMARK   79  A    between atoms: _183  and  _186
REMARK   80  A    between atoms: _188  and  _190
REMARK   81  A    between atoms: _190  and  _191
REMARK   82  A    between atoms: _190  and  _193
REMARK   83  A    between atoms: _193  and  _194
REMARK   84  A    between atoms: _197  and  _199
REMARK   85  A    between atoms: _199  and  _200
REMARK   86  A    between atoms: _199  and  _202
REMARK   87  A    between atoms: _202  and  _203
REMARK   88  A    between atoms: _206  and  _208
REMARK   89  A    between atoms: _208  and  _209
REMARK   90  A    between atoms: _208  and  _211
REMARK   91  A    between atoms: _211  and  _212
REMARK   92  A    between atoms: _215  and  _217
REMARK   93  A    between atoms: _217  and  _218
REMARK   94  A    between atoms: _217  and  _220
REMARK   95  A    between atoms: _220  and  _221
REMARK   96  A    between atoms: _224  and  _226
REMARK   97  A    between atoms: _226  and  _227
REMARK   98  A    between atoms: _226  and  _229
REMARK   99  A    between atoms: _229  and  _230
REMARK  100  A    between atoms: _230  and  _231
REMARK  101  A    between atoms: _233  and  _235
REMARK  102  A    between atoms: _235  and  _236
REMARK  103  A    between atoms: _235  and  _238
REMARK  104  A    between atoms: _238  and  _239
REMARK  105  A    between atoms: _242  and  _244
REMARK  106  A    between atoms: _244  and  _245
REMARK  107  A    between atoms: _244  and  _247
REMARK  108  A    between atoms: _247  and  _248
REMARK  109  A    between atoms: _248  and  _249
REMARK  110  A    between atoms: _249  and  _250
REMARK  111  A    between atoms: _259  and  _261
REMARK  112  A    between atoms: _261  and  _262
REMARK  113  A    between atoms: _261  and  _264
REMARK  114  A    between atoms: _264  and  _265
REMARK  115  A    between atoms: _268  and  _270
REMARK  116  A    between atoms: _270  and  _271
REMARK  117  A    between atoms: _270  and  _273
REMARK  118  A    between atoms: _275  and  _277
REMARK  119  A    between atoms: _277  and  _278
REMARK  120  A    between atoms: _277  and  _280
REMARK  121  A    between atoms: _280  and  _281
REMARK  122  A    between atoms: _284  and  _286
REMARK  123  A    between atoms: _286  and  _287
REMARK  124  A    between atoms: _286  and  _289
REMARK  125  A    between atoms: _289  and  _290
REMARK  126  A    between atoms: _290  and  _291
REMARK  127  A    between atoms: _291  and  _292
REMARK  128  A    between atoms: _301  and  _303
REMARK  129  A    between atoms: _303  and  _304
REMARK  130  A    between atoms: _303  and  _306
REMARK  131  A    between atoms: _306  and  _307
REMARK  132  A    between atoms: _307  and  _308
REMARK  133  A    between atoms: _310  and  _312
REMARK  134  A    between atoms: _312  and  _313
REMARK  135  A    between atoms: _312  and  _315
REMARK  136  A    between atoms: _315  and  _316
REMARK  137  A    between atoms: _319  and  _321
REMARK  138  A    between atoms: _321  and  _322
REMARK  139  A    between atoms: _321  and  _324
REMARK  140  A    between atoms: _324  and  _325
REMARK  141  A    between atoms: _331  and  _333
REMARK  142  A    between atoms: _333  and  _334
REMARK  143  A    between atoms: _333  and  _336
REMARK  144  A    between atoms: _336  and  _337
REMARK  145  A    between atoms: _339  and  _341
REMARK  146  A    between atoms: _341  and  _342
REMARK  147  A    between atoms: _341  and  _344
REMARK  148  A    between atoms: _344  and  _345
REMARK  149  A    between atoms: _348  and  _350
REMARK  150  A    between atoms: _350  and  _351
REMARK  151  A    between atoms: _353  and  _355
REMARK  152  A    between atoms: _355  and  _356
REMARK  153  A    between atoms: _355  and  _358
REMARK  154  A    between atoms: _358  and  _359
REMARK  155  A    between atoms: _362  and  _364
REMARK  156  A    between atoms: _364  and  _365
REMARK  157  A    between atoms: _364  and  _367
REMARK  158  A    between atoms: _367  and  _368
REMARK  159  A    between atoms: _368  and  _369
REMARK  160  A    between atoms: _371  and  _373
REMARK  161  A    between atoms: _373  and  _374
REMARK  162  A    between atoms: _373  and  _376
REMARK  163  A    between atoms: _376  and  _377
REMARK  164  A    between atoms: _382  and  _384
REMARK  165  A    between atoms: _384  and  _385
REMARK  166  A    between atoms: _388  and  _390
REMARK  167  A    between atoms: _390  and  _391
REMARK  168  A    between atoms: _393  and  _395
REMARK  169  A    between atoms: _395  and  _396
REMARK  170  A    between atoms: _395  and  _398
REMARK  171  A    between atoms: _398  and  _399
REMARK  172  A    between atoms: _405  and  _407
REMARK  173  A    between atoms: _407  and  _408
REMARK  174  A    between atoms: _410  and  _412
REMARK  175  A    between atoms: _412  and  _413
REMARK  176  A    between atoms: _412  and  _415
REMARK  177  A    between atoms: _415  and  _416
REMARK  178  A    between atoms: _419  and  _421
REMARK  179  A    between atoms: _421  and  _422
REMARK  180  A    between atoms: _421  and  _424
REMARK  181  A    between atoms: _424  and  _425
REMARK  182  A    between atoms: _428  and  _430
REMARK  183  A    between atoms: _430  and  _431
REMARK  184  A    between atoms: _430  and  _433
REMARK  185  A    between atoms: _436  and  _438
REMARK  186  A    between atoms: _438  and  _439
REMARK  187  A    between atoms: _438  and  _441
REMARK  188  A    between atoms: _441  and  _442
REMARK  189  A    between atoms: _445  and  _447
REMARK  190  A    between atoms: _447  and  _448
REMARK  191  A    between atoms: _447  and  _450
REMARK  192  A    between atoms: _450  and  _451
REMARK  193  A    between atoms: _453  and  _455
REMARK  194  A    between atoms: _455  and  _456
REMARK  195  A    between atoms: _455  and  _458
REMARK  196  A    between atoms: _458  and  _459
REMARK  197  A    between atoms: _459  and  _460
REMARK  198  A    between atoms: _460  and  _461
REMARK  199  A    between atoms: _461  and  _462
REMARK  200  A    between atoms: _466  and  _468
REMARK  201  A    between atoms: _468  and  _469
REMARK  202  A    between atoms: _471  and  _473
REMARK  203  A    between atoms: _473  and  _474
REMARK  204  A    between atoms: _477  and  _479
REMARK  205  A    between atoms: _479  and  _480
REMARK  206  A    between atoms: _479  and  _482
REMARK  207  A    between atoms: _482  and  _483
REMARK  208  A    between atoms: _483  and  _484
REMARK  209  A    between atoms: _487  and  _489
REMARK  210  A    between atoms: _489  and  _490
REMARK  211  A    between atoms: _489  and  _492
REMARK  212  A    between atoms: _492  and  _493
REMARK  213  A    between atoms: _493  and  _494
REMARK  214  A    between atoms: _494  and  _495
REMARK  215  A    between atoms: _504  and  _506
REMARK  216  A    between atoms: _506  and  _507
REMARK  217  A    between atoms: _510  and  _512
REMARK  218  A    between atoms: _512  and  _513
REMARK  219  A    between atoms: _512  and  _515
REMARK  220  A    between atoms: _515  and  _516
REMARK  221  A    between atoms: _519  and  _521
REMARK  222  A    between atoms: _521  and  _522
REMARK  223  A    between atoms: _521  and  _524
REMARK  224  A    between atoms: _524  and  _525
REMARK  225  A    between atoms: _528  and  _530
REMARK  226  A    between atoms: _530  and  _531
REMARK  227  A    between atoms: _530  and  _533
REMARK  228  A    between atoms: _533  and  _534
REMARK  229  A    between atoms: _537  and  _539
REMARK  230  A    between atoms: _539  and  _540
REMARK  231  A    between atoms: _539  and  _542
REMARK  232  A    between atoms: _542  and  _543
REMARK  233  A    between atoms: _543  and  _544
REMARK  234  A    between atoms: _544  and  _545
REMARK  235  A    between atoms: _545  and  _546
REMARK  236  A    between atoms: _550  and  _552
REMARK  237  A    between atoms: _552  and  _553
REMARK  238  A    between atoms: _552  and  _555
REMARK  239  A    between atoms: _555  and  _556
REMARK  240  A    between atoms: _559  and  _561
REMARK  241  A    between atoms: _561  and  _562
REMARK  242  A    between atoms: _561  and  _564
REMARK  243  A    between atoms: _564  and  _565
REMARK  244  A    between atoms: _565  and  _566
REMARK  245  A    between atoms: _569  and  _570
REMARK  246  A    between atoms: _575  and  _577
REMARK  247  A    between atoms: _577  and  _578
REMARK  248  A    between atoms: _577  and  _580
REMARK  249  A    between atoms: _580  and  _581
REMARK  250  A    between atoms: _584  and  _586
REMARK  251  A    between atoms: _586  and  _587
REMARK  252  A    between atoms: _586  and  _589
REMARK  253  A    between atoms: _589  and  _590
REMARK  254  A    between atoms: _590  and  _591
REMARK  255  A    between atoms: _591  and  _592
REMARK  256  A    between atoms: _601  and  _603
REMARK  257  A    between atoms: _603  and  _604
REMARK  258  A    between atoms: _603  and  _606
REMARK  259  A    between atoms: _606  and  _607
REMARK  260  A    between atoms: _607  and  _608
REMARK  261  A    between atoms: _610  and  _612
REMARK  262  A    between atoms: _612  and  _613
REMARK  263  A    between atoms: _612  and  _615
REMARK  264  A    between atoms: _615  and  _616
REMARK                            x       y       z     vdW  Elec       q    Type
REMARK                         _______ _______ _______ _____ _____    ______ ____
ROOT
ATOM      1  O   HOH     1      53.437  14.478  81.056  0.00  0.00    +0.000 OA
ENDROOT
TORSDOF 0
REMARK  Name = ../refined-set-2016/1fcx/1fcx_pocket.pdb
REMARK  264 active torsions:
REMARK  status: ('A' for Active; 'I' for Inactive)
REMARK    1  A    between atoms: _1  and  _3
REMARK    2  A    between atoms: _3  and  _4
REMARK    3  A    between atoms: _3  and  _6
REMARK    4  A    between atoms: _6  and  _7
REMARK    5  A    between atoms: _10  and  _12
REMARK    6  A    between atoms: _12  and  _13
REMARK    7  A    between atoms: _12  and  _15
REMARK    8  A    between atoms: _15  and  _16
REMARK    9  A    between atoms: _23  and  _24
REMARK   10  A    between atoms: _29  and  _31
REMARK   11  A    between atoms: _31  and  _32
REMARK   12  A    between atoms: _31  and  _34
REMARK   13  A    between atoms: _34  and  _35
REMARK   14  A    between atoms: _38  and  _40
REMARK   15  A    between atoms: _40  and  _41
REMARK   16  A    between atoms: _40  and  _43
REMARK   17  A    between atoms: _43  and  _44
REMARK   18  A    between atoms: _47  and  _49
REMARK   19  A    between atoms: _49  and  _50
REMARK   20  A    between atoms: _49  and  _52
REMARK   21  A    between atoms: _52  and  _53
REMARK   22  A    between atoms: _63  and  _65
REMARK   23  A    between atoms: _65  and  _66
REMARK   24  A    between atoms: _65  and  _68
REMARK   25  A    between atoms: _68  and  _69
REMARK   26  A    between atoms: _69  and  _70
REMARK   27  A    between atoms: _70  and  _71
REMARK   28  A    between atoms: _71  and  _72
REMARK   29  A    between atoms: _76  and  _78
REMARK   30  A    between atoms: _78  and  _79
REMARK   31  A    between atoms: _78  and  _81
REMARK   32  A    between atoms: _81  and  _82
REMARK   33  A    between atoms: _88  and  _90
REMARK   34  A    between atoms: _90  and  _91
REMARK   35  A    between atoms: _90  and  _93
REMARK   36  A    between atoms: _93  and  _94
REMARK   37  A    between atoms: _96  and  _98
REMARK   38  A    between atoms: _98  and  _99
REMARK   39  A    between atoms: _98  and  _101
REMARK   40  A    between atoms: _101  and  _102
REMARK   41  A    between atoms: _102  and  _103
REMARK   42  A    between atoms: _106  and  _108
REMARK   43  A    between atoms: _108  and  _109
REMARK   44  A    between atoms: _108  and  _111
REMARK   45  A    between atoms: _111  and  _112
REMARK   46  A    between atoms: _115  and  _117
REMARK   47  A    between atoms: _117  and  _118
REMARK   48  A    between atoms: _121  and  _123
REMARK   49  A    between atoms: _123  and  _124
REMARK   50  A    between atoms: _123  and  _126
REMARK   51  A    between atoms: _126  and  _127
REMARK   52  A    between atoms: _130  and  _132
REMARK   53  A    between atoms: _132  and  _133
REMARK   54  A    between atoms: _132  and  _135
REMARK   55  A    between atoms: _135  and  _136
REMARK   56  A    between atoms: _136  and  _137
REMARK   57  A    between atoms: _137  and  _138
REMARK   58  A    between atoms: _138  and  _139
REMARK   59  A    between atoms: _143  and  _145
REMARK   60  A    between atoms: _145  and  _146
REMARK   61  A    between atoms: _145  and  _148
REMARK   62  A    between atoms: _150  and  _152
REMARK   63  A    between atoms: _152  and  _153
REMARK   64  A    between atoms: _152  and  _155
REMARK   65  A    between atoms: _155  and  _156
REMARK   66  A    between atoms: _159  and  _161
REMARK   67  A    between atoms: _161  and  _162
REMARK   68  A    between atoms: _161  and  _164
REMARK   69  A    between atoms: _164  and  _165
REMARK   70  A    between atoms: _165  and  _166
REMARK   71  A    between atoms: _166  and  _167
REMARK   72  A    between atoms: _167  and  _168
REMARK   73  A    between atoms: _172  and  _174
REMARK   74  A    between atoms: _174  and  _175
REMARK   75  A    between atoms: _174  and  _177
REMARK   76  A    between atoms: _177  and  _178
REMARK   77  A    between atoms: _181  and  _183
REMARK   78  A    between atoms: _183  and  _184
REMARK   79  A    between atoms: _183  and  _186
REMARK   80  A    between atoms: _188  and  _190
REMARK   81  A    between atoms: _190  and  _191
REMARK   82  A    between atoms: _190  and  _193
REMARK   83  A    between atoms: _193  and  _194
REMARK   84  A    between atoms: _197  and  _199
REMARK   85  A    between atoms: _199  and  _200
REMARK   86  A    between atoms: _199  and  _202
REMARK   87  A    between atoms: _202  and  _203
REMARK   88  A    between atoms: _206  and  _208
REMARK   89  A    between atoms: _208  and  _209
REMARK   90  A    between atoms: _208  and  _211
REMARK   91  A    between atoms: _211  and  _212
REMARK   92  A    between atoms: _215  and  _217
REMARK   93  A    between atoms: _217  and  _218
REMARK   94  A    between atoms: _217  and  _220
REMARK   95  A    between atoms: _220  and  _221
REMARK   96  A    between atoms: _224  and  _226
REMARK   97  A    between atoms: _226  and  _227
REMARK   98  A    between atoms: _226  and  _229
REMARK   99  A    between atoms: _229  and  _230
REMARK  100  A    between atoms: _230  and  _231
REMARK  101  A    between atoms: _233  and  _235
REMARK  102  A    between atoms: _235  and  _236
REMARK  103  A    between atoms: _235  and  _238
REMARK  104  A    between atoms: _238  and  _239
REMARK  105  A    between atoms: _242  and  _244
REMARK  106  A    between atoms: _244  and  _245
REMARK  107  A    between atoms: _244  and  _247
REMARK  108  A    between atoms: _247  and  _248
REMARK  109  A    between atoms: _248  and  _249
REMARK  110  A    between atoms: _249  and  _250
REMARK  111  A    between atoms: _259  and  _261
REMARK  112  A    between atoms: _261  and  _262
REMARK  113  A    between atoms: _261  and  _264
REMARK  114  A    between atoms: _264  and  _265
REMARK  115  A    between atoms: _268  and  _270
REMARK  116  A    between atoms: _270  and  _271
REMARK  117  A    between atoms: _270  and  _273
REMARK  118  A    between atoms: _275  and  _277
REMARK  119  A    between atoms: _277  and  _278
REMARK  120  A    between atoms: _277  and  _280
REMARK  121  A    between atoms: _280  and  _281
REMARK  122  A    between atoms: _284  and  _286
REMARK  123  A    between atoms: _286  and  _287
REMARK  124  A    between atoms: _286  and  _289
REMARK  125  A    between atoms: _289  and  _290
REMARK  126  A    between atoms: _290  and  _291
REMARK  127  A    between atoms: _291  and  _292
REMARK  128  A    between atoms: _301  and  _303
REMARK  129  A    between atoms: _303  and  _304
REMARK  130  A    between atoms: _303  and  _306
REMARK  131  A    between atoms: _306  and  _307
REMARK  132  A    between atoms: _307  and  _308
REMARK  133  A    between atoms: _310  and  _312
REMARK  134  A    between atoms: _312  and  _313
REMARK  135  A    between atoms: _312  and  _315
REMARK  136  A    between atoms: _315  and  _316
REMARK  137  A    between atoms: _319  and  _321
REMARK  138  A    between atoms: _321  and  _322
REMARK  139  A    between atoms: _321  and  _324
REMARK  140  A    between atoms: _324  and  _325
REMARK  141  A    between atoms: _331  and  _333
REMARK  142  A    between atoms: _333  and  _334
REMARK  143  A    between atoms: _333  and  _336
REMARK  144  A    between atoms: _336  and  _337
REMARK  145  A    between atoms: _339  and  _341
REMARK  146  A    between atoms: _341  and  _342
REMARK  147  A    between atoms: _341  and  _344
REMARK  148  A    between atoms: _344  and  _345
REMARK  149  A    between atoms: _348  and  _350
REMARK  150  A    between atoms: _350  and  _351
REMARK  151  A    between atoms: _353  and  _355
REMARK  152  A    between atoms: _355  and  _356
REMARK  153  A    between atoms: _355  and  _358
REMARK  154  A    between atoms: _358  and  _359
REMARK  155  A    between atoms: _362  and  _364
REMARK  156  A    between atoms: _364  and  _365
REMARK  157  A    between atoms: _364  and  _367
REMARK  158  A    between atoms: _367  and  _368
REMARK  159  A    between atoms: _368  and  _369
REMARK  160  A    between atoms: _371  and  _373
REMARK  161  A    between atoms: _373  and  _374
REMARK  162  A    between atoms: _373  and  _376
REMARK  163  A    between atoms: _376  and  _377
REMARK  164  A    between atoms: _382  and  _384
REMARK  165  A    between atoms: _384  and  _385
REMARK  166  A    between atoms: _388  and  _390
REMARK  167  A    between atoms: _390  and  _391
REMARK  168  A    between atoms: _393  and  _395
REMARK  169  A    between atoms: _395  and  _396
REMARK  170  A    between atoms: _395  and  _398
REMARK  171  A    between atoms: _398  and  _399
REMARK  172  A    between atoms: _405  and  _407
REMARK  173  A    between atoms: _407  and  _408
REMARK  174  A    between atoms: _410  and  _412
REMARK  175  A    between atoms: _412  and  _413
REMARK  176  A    between atoms: _412  and  _415
REMARK  177  A    between atoms: _415  and  _416
REMARK  178  A    between atoms: _419  and  _421
REMARK  179  A    between atoms: _421  and  _422
REMARK  180  A    between atoms: _421  and  _424
REMARK  181  A    between atoms: _424  and  _425
REMARK  182  A    between atoms: _428  and  _430
REMARK  183  A    between atoms: _430  and  _431
REMARK  184  A    between atoms: _430  and  _433
REMARK  185  A    between atoms: _436  and  _438
REMARK  186  A    between atoms: _438  and  _439
REMARK  187  A    between atoms: _438  and  _441
REMARK  188  A    between atoms: _441  and  _442
REMARK  189  A    between atoms: _445  and  _447
REMARK  190  A    between atoms: _447  and  _448
REMARK  191  A    between atoms: _447  and  _450
REMARK  192  A    between atoms: _450  and  _451
REMARK  193  A    between atoms: _453  and  _455
REMARK  194  A    between atoms: _455  and  _456
REMARK  195  A    between atoms: _455  and  _458
REMARK  196  A    between atoms: _458  and  _459
REMARK  197  A    between atoms: _459  and  _460
REMARK  198  A    between atoms: _460  and  _461
REMARK  199  A    between atoms: _461  and  _462
REMARK  200  A    between atoms: _466  and  _468
REMARK  201  A    between atoms: _468  and  _469
REMARK  202  A    between atoms: _471  and  _473
REMARK  203  A    between atoms: _473  and  _474
REMARK  204  A    between atoms: _477  and  _479
REMARK  205  A    between atoms: _479  and  _480
REMARK  206  A    between atoms: _479  and  _482
REMARK  207  A    between atoms: _482  and  _483
REMARK  208  A    between atoms: _483  and  _484
REMARK  209  A    between atoms: _487  and  _489
REMARK  210  A    between atoms: _489  and  _490
REMARK  211  A    between atoms: _489  and  _492
REMARK  212  A    between atoms: _492  and  _493
REMARK  213  A    between atoms: _493  and  _494
REMARK  214  A    between atoms: _494  and  _495
REMARK  215  A    between atoms: _504  and  _506
REMARK  216  A    between atoms: _506  and  _507
REMARK  217  A    between atoms: _510  and  _512
REMARK  218  A    between atoms: _512  and  _513
REMARK  219  A    between atoms: _512  and  _515
REMARK  220  A    between atoms: _515  and  _516
REMARK  221  A    between atoms: _519  and  _521
REMARK  222  A    between atoms: _521  and  _522
REMARK  223  A    between atoms: _521  and  _524
REMARK  224  A    between atoms: _524  and  _525
REMARK  225  A    between atoms: _528  and  _530
REMARK  226  A    between atoms: _530  and  _531
REMARK  227  A    between atoms: _530  and  _533
REMARK  228  A    between atoms: _533  and  _534
REMARK  229  A    between atoms: _537  and  _539
REMARK  230  A    between atoms: _539  and  _540
REMARK  231  A    between atoms: _539  and  _542
REMARK  232  A    between atoms: _542  and  _543
REMARK  233  A    between atoms: _543  and  _544
REMARK  234  A    between atoms: _544  and  _545
REMARK  235  A    between atoms: _545  and  _546
REMARK  236  A    between atoms: _550  and  _552
REMARK  237  A    between atoms: _552  and  _553
REMARK  238  A    between atoms: _552  and  _555
REMARK  239  A    between atoms: _555  and  _556
REMARK  240  A    between atoms: _559  and  _561
REMARK  241  A    between atoms: _561  and  _562
REMARK  242  A    between atoms: _561  and  _564
REMARK  243  A    between atoms: _564  and  _565
REMARK  244  A    between atoms: _565  and  _566
REMARK  245  A    between atoms: _569  and  _570
REMARK  246  A    between atoms: _575  and  _577
REMARK  247  A    between atoms: _577  and  _578
REMARK  248  A    between atoms: _577  and  _580
REMARK  249  A    between atoms: _580  and  _581
REMARK  250  A    between atoms: _584  and  _586
REMARK  251  A    between atoms: _586  and  _587
REMARK  252  A    between atoms: _586  and  _589
REMARK  253  A    between atoms: _589  and  _590
REMARK  254  A    between atoms: _590  and  _591
REMARK  255  A    between atoms: _591  and  _592
REMARK  256  A    between atoms: _601  and  _603
REMARK  257  A    between atoms: _603  and  _604
REMARK  258  A    between atoms: _603  and  _606
REMARK  259  A    between atoms: _606  and  _607
REMARK  260  A    between atoms: _607  and  _608
REMARK  261  A    between atoms: _610  and  _612
REMARK  262  A    between atoms: _612  and  _613
REMARK  263  A    between atoms: _612  and  _615
REMARK  264  A    between atoms: _615  and  _616
REMARK                            x       y       z     vdW  Elec       q    Type
REMARK                         _______ _______ _______ _____ _____    ______ ____
ROOT
ATOM      1  O   HOH     1      49.387  12.034  87.554  0.00  0.00    +0.000 OA
ENDROOT
TORSDOF 0
REMARK  Name = ../refined-set-2016/1fcx/1fcx_pocket.pdb
REMARK  264 active torsions:
REMARK  status: ('A' for Active; 'I' for Inactive)
REMARK    1  A    between atoms: _1  and  _3
REMARK    2  A    between atoms: _3  and  _4
REMARK    3  A    between atoms: _3  and  _6
REMARK    4  A    between atoms: _6  and  _7
REMARK    5  A    between atoms: _10  and  _12
REMARK    6  A    between atoms: _12  and  _13
REMARK    7  A    between atoms: _12  and  _15
REMARK    8  A    between atoms: _15  and  _16
REMARK    9  A    between atoms: _23  and  _24
REMARK   10  A    between atoms: _29  and  _31
REMARK   11  A    between atoms: _31  and  _32
REMARK   12  A    between atoms: _31  and  _34
REMARK   13  A    between atoms: _34  and  _35
REMARK   14  A    between atoms: _38  and  _40
REMARK   15  A    between atoms: _40  and  _41
REMARK   16  A    between atoms: _40  and  _43
REMARK   17  A    between atoms: _43  and  _44
REMARK   18  A    between atoms: _47  and  _49
REMARK   19  A    between atoms: _49  and  _50
REMARK   20  A    between atoms: _49  and  _52
REMARK   21  A    between atoms: _52  and  _53
REMARK   22  A    between atoms: _63  and  _65
REMARK   23  A    between atoms: _65  and  _66
REMARK   24  A    between atoms: _65  and  _68
REMARK   25  A    between atoms: _68  and  _69
REMARK   26  A    between atoms: _69  and  _70
REMARK   27  A    between atoms: _70  and  _71
REMARK   28  A    between atoms: _71  and  _72
REMARK   29  A    between atoms: _76  and  _78
REMARK   30  A    between atoms: _78  and  _79
REMARK   31  A    between atoms: _78  and  _81
REMARK   32  A    between atoms: _81  and  _82
REMARK   33  A    between atoms: _88  and  _90
REMARK   34  A    between atoms: _90  and  _91
REMARK   35  A    between atoms: _90  and  _93
REMARK   36  A    between atoms: _93  and  _94
REMARK   37  A    between atoms: _96  and  _98
REMARK   38  A    between atoms: _98  and  _99
REMARK   39  A    between atoms: _98  and  _101
REMARK   40  A    between atoms: _101  and  _102
REMARK   41  A    between atoms: _102  and  _103
REMARK   42  A    between atoms: _106  and  _108
REMARK   43  A    between atoms: _108  and  _109
REMARK   44  A    between atoms: _108  and  _111
REMARK   45  A    between atoms: _111  and  _112
REMARK   46  A    between atoms: _115  and  _117
REMARK   47  A    between atoms: _117  and  _118
REMARK   48  A    between atoms: _121  and  _123
REMARK   49  A    between atoms: _123  and  _124
REMARK   50  A    between atoms: _123  and  _126
REMARK   51  A    between atoms: _126  and  _127
REMARK   52  A    between atoms: _130  and  _132
REMARK   53  A    between atoms: _132  and  _133
REMARK   54  A    between atoms: _132  and  _135
REMARK   55  A    between atoms: _135  and  _136
REMARK   56  A    between atoms: _136  and  _137
REMARK   57  A    between atoms: _137  and  _138
REMARK   58  A    between atoms: _138  and  _139
REMARK   59  A    between atoms: _143  and  _145
REMARK   60  A    between atoms: _145  and  _146
REMARK   61  A    between atoms: _145  and  _148
REMARK   62  A    between atoms: _150  and  _152
REMARK   63  A    between atoms: _152  and  _153
REMARK   64  A    between atoms: _152  and  _155
REMARK   65  A    between atoms: _155  and  _156
REMARK   66  A    between atoms: _159  and  _161
REMARK   67  A    between atoms: _161  and  _162
REMARK   68  A    between atoms: _161  and  _164
REMARK   69  A    between atoms: _164  and  _165
REMARK   70  A    between atoms: _165  and  _166
REMARK   71  A    between atoms: _166  and  _167
REMARK   72  A    between atoms: _167  and  _168
REMARK   73  A    between atoms: _172  and  _174
REMARK   74  A    between atoms: _174  and  _175
REMARK   75  A    between atoms: _174  and  _177
REMARK   76  A    between atoms: _177  and  _178
REMARK   77  A    between atoms: _181  and  _183
REMARK   78  A    between atoms: _183  and  _184
REMARK   79  A    between atoms: _183  and  _186
REMARK   80  A    between atoms: _188  and  _190
REMARK   81  A    between atoms: _190  and  _191
REMARK   82  A    between atoms: _190  and  _193
REMARK   83  A    between atoms: _193  and  _194
REMARK   84  A    between atoms: _197  and  _199
REMARK   85  A    between atoms: _199  and  _200
REMARK   86  A    between atoms: _199  and  _202
REMARK   87  A    between atoms: _202  and  _203
REMARK   88  A    between atoms: _206  and  _208
REMARK   89  A    between atoms: _208  and  _209
REMARK   90  A    between atoms: _208  and  _211
REMARK   91  A    between atoms: _211  and  _212
REMARK   92  A    between atoms: _215  and  _217
REMARK   93  A    between atoms: _217  and  _218
REMARK   94  A    between atoms: _217  and  _220
REMARK   95  A    between atoms: _220  and  _221
REMARK   96  A    between atoms: _224  and  _226
REMARK   97  A    between atoms: _226  and  _227
REMARK   98  A    between atoms: _226  and  _229
REMARK   99  A    between atoms: _229  and  _230
REMARK  100  A    between atoms: _230  and  _231
REMARK  101  A    between atoms: _233  and  _235
REMARK  102  A    between atoms: _235  and  _236
REMARK  103  A    between atoms: _235  and  _238
REMARK  104  A    between atoms: _238  and  _239
REMARK  105  A    between atoms: _242  and  _244
REMARK  106  A    between atoms: _244  and  _245
REMARK  107  A    between atoms: _244  and  _247
REMARK  108  A    between atoms: _247  and  _248
REMARK  109  A    between atoms: _248  and  _249
REMARK  110  A    between atoms: _249  and  _250
REMARK  111  A    between atoms: _259  and  _261
REMARK  112  A    between atoms: _261  and  _262
REMARK  113  A    between atoms: _261  and  _264
REMARK  114  A    between atoms: _264  and  _265
REMARK  115  A    between atoms: _268  and  _270
REMARK  116  A    between atoms: _270  and  _271
REMARK  117  A    between atoms: _270  and  _273
REMARK  118  A    between atoms: _275  and  _277
REMARK  119  A    between atoms: _277  and  _278
REMARK  120  A    between atoms: _277  and  _280
REMARK  121  A    between atoms: _280  and  _281
REMARK  122  A    between atoms: _284  and  _286
REMARK  123  A    between atoms: _286  and  _287
REMARK  124  A    between atoms: _286  and  _289
REMARK  125  A    between atoms: _289  and  _290
REMARK  126  A    between atoms: _290  and  _291
REMARK  127  A    between atoms: _291  and  _292
REMARK  128  A    between atoms: _301  and  _303
REMARK  129  A    between atoms: _303  and  _304
REMARK  130  A    between atoms: _303  and  _306
REMARK  131  A    between atoms: _306  and  _307
REMARK  132  A    between atoms: _307  and  _308
REMARK  133  A    between atoms: _310  and  _312
REMARK  134  A    between atoms: _312  and  _313
REMARK  135  A    between atoms: _312  and  _315
REMARK  136  A    between atoms: _315  and  _316
REMARK  137  A    between atoms: _319  and  _321
REMARK  138  A    between atoms: _321  and  _322
REMARK  139  A    between atoms: _321  and  _324
REMARK  140  A    between atoms: _324  and  _325
REMARK  141  A    between atoms: _331  and  _333
REMARK  142  A    between atoms: _333  and  _334
REMARK  143  A    between atoms: _333  and  _336
REMARK  144  A    between atoms: _336  and  _337
REMARK  145  A    between atoms: _339  and  _341
REMARK  146  A    between atoms: _341  and  _342
REMARK  147  A    between atoms: _341  and  _344
REMARK  148  A    between atoms: _344  and  _345
REMARK  149  A    between atoms: _348  and  _350
REMARK  150  A    between atoms: _350  and  _351
REMARK  151  A    between atoms: _353  and  _355
REMARK  152  A    between atoms: _355  and  _356
REMARK  153  A    between atoms: _355  and  _358
REMARK  154  A    between atoms: _358  and  _359
REMARK  155  A    between atoms: _362  and  _364
REMARK  156  A    between atoms: _364  and  _365
REMARK  157  A    between atoms: _364  and  _367
REMARK  158  A    between atoms: _367  and  _368
REMARK  159  A    between atoms: _368  and  _369
REMARK  160  A    between atoms: _371  and  _373
REMARK  161  A    between atoms: _373  and  _374
REMARK  162  A    between atoms: _373  and  _376
REMARK  163  A    between atoms: _376  and  _377
REMARK  164  A    between atoms: _382  and  _384
REMARK  165  A    between atoms: _384  and  _385
REMARK  166  A    between atoms: _388  and  _390
REMARK  167  A    between atoms: _390  and  _391
REMARK  168  A    between atoms: _393  and  _395
REMARK  169  A    between atoms: _395  and  _396
REMARK  170  A    between atoms: _395  and  _398
REMARK  171  A    between atoms: _398  and  _399
REMARK  172  A    between atoms: _405  and  _407
REMARK  173  A    between atoms: _407  and  _408
REMARK  174  A    between atoms: _410  and  _412
REMARK  175  A    between atoms: _412  and  _413
REMARK  176  A    between atoms: _412  and  _415
REMARK  177  A    between atoms: _415  and  _416
REMARK  178  A    between atoms: _419  and  _421
REMARK  179  A    between atoms: _421  and  _422
REMARK  180  A    between atoms: _421  and  _424
REMARK  181  A    between atoms: _424  and  _425
REMARK  182  A    between atoms: _428  and  _430
REMARK  183  A    between atoms: _430  and  _431
REMARK  184  A    between atoms: _430  and  _433
REMARK  185  A    between atoms: _436  and  _438
REMARK  186  A    between atoms: _438  and  _439
REMARK  187  A    between atoms: _438  and  _441
REMARK  188  A    between atoms: _441  and  _442
REMARK  189  A    between atoms: _445  and  _447
REMARK  190  A    between atoms: _447  and  _448
REMARK  191  A    between atoms: _447  and  _450
REMARK  192  A    between atoms: _450  and  _451
REMARK  193  A    between atoms: _453  and  _455
REMARK  194  A    between atoms: _455  and  _456
REMARK  195  A    between atoms: _455  and  _458
REMARK  196  A    between atoms: _458  and  _459
REMARK  197  A    between atoms: _459  and  _460
REMARK  198  A    between atoms: _460  and  _461
REMARK  199  A    between atoms: _461  and  _462
REMARK  200  A    between atoms: _466  and  _468
REMARK  201  A    between atoms: _468  and  _469
REMARK  202  A    between atoms: _471  and  _473
REMARK  203  A    between atoms: _473  and  _474
REMARK  204  A    between atoms: _477  and  _479
REMARK  205  A    between atoms: _479  and  _480
REMARK  206  A    between atoms: _479  and  _482
REMARK  207  A    between atoms: _482  and  _483
REMARK  208  A    between atoms: _483  and  _484
REMARK  209  A    between atoms: _487  and  _489
REMARK  210  A    between atoms: _489  and  _490
REMARK  211  A    between atoms: _489  and  _492
REMARK  212  A    between atoms: _492  and  _493
REMARK  213  A    between atoms: _493  and  _494
REMARK  214  A    between atoms: _494  and  _495
REMARK  215  A    between atoms: _504  and  _506
REMARK  216  A    between atoms: _506  and  _507
REMARK  217  A    between atoms: _510  and  _512
REMARK  218  A    between atoms: _512  and  _513
REMARK  219  A    between atoms: _512  and  _515
REMARK  220  A    between atoms: _515  and  _516
REMARK  221  A    between atoms: _519  and  _521
REMARK  222  A    between atoms: _521  and  _522
REMARK  223  A    between atoms: _521  and  _524
REMARK  224  A    between atoms: _524  and  _525
REMARK  225  A    between atoms: _528  and  _530
REMARK  226  A    between atoms: _530  and  _531
REMARK  227  A    between atoms: _530  and  _533
REMARK  228  A    between atoms: _533  and  _534
REMARK  229  A    between atoms: _537  and  _539
REMARK  230  A    between atoms: _539  and  _540
REMARK  231  A    between atoms: _539  and  _542
REMARK  232  A    between atoms: _542  and  _543
REMARK  233  A    between atoms: _543  and  _544
REMARK  234  A    between atoms: _544  and  _545
REMARK  235  A    between atoms: _545  and  _546
REMARK  236  A    between atoms: _550  and  _552
REMARK  237  A    between atoms: _552  and  _553
REMARK  238  A    between atoms: _552  and  _555
REMARK  239  A    between atoms: _555  and  _556
REMARK  240  A    between atoms: _559  and  _561
REMARK  241  A    between atoms: _561  and  _562
REMARK  242  A    between atoms: _561  and  _564
REMARK  243  A    between atoms: _564  and  _565
REMARK  244  A    between atoms: _565  and  _566
REMARK  245  A    between atoms: _569  and  _570
REMARK  246  A    between atoms: _575  and  _577
REMARK  247  A    between atoms: _577  and  _578
REMARK  248  A    between atoms: _577  and  _580
REMARK  249  A    between atoms: _580  and  _581
REMARK  250  A    between atoms: _584  and  _586
REMARK  251  A    between atoms: _586  and  _587
REMARK  252  A    between atoms: _586  and  _589
REMARK  253  A    between atoms: _589  and  _590
REMARK  254  A    between atoms: _590  and  _591
REMARK  255  A    between atoms: _591  and  _592
REMARK  256  A    between atoms: _601  and  _603
REMARK  257  A    between atoms: _603  and  _604
REMARK  258  A    between atoms: _603  and  _606
REMARK  259  A    between atoms: _606  and  _607
REMARK  260  A    between atoms: _607  and  _608
REMARK  261  A    between atoms: _610  and  _612
REMARK  262  A    between atoms: _612  and  _613
REMARK  263  A    between atoms: _612  and  _615
REMARK  264  A    between atoms: _615  and  _616
REMARK                            x       y       z     vdW  Elec       q    Type
REMARK                         _______ _______ _______ _____ _____    ______ ____
ROOT
ATOM      1  O   HOH     1      45.267   6.924  74.771  0.00  0.00    +0.000 OA
ENDROOT
TORSDOF 0
REMARK  Name = ../refined-set-2016/1fcx/1fcx_pocket.pdb
REMARK  264 active torsions:
REMARK  status: ('A' for Active; 'I' for Inactive)
REMARK    1  A    between atoms: _1  and  _3
REMARK    2  A    between atoms: _3  and  _4
REMARK    3  A    between atoms: _3  and  _6
REMARK    4  A    between atoms: _6  and  _7
REMARK    5  A    between atoms: _10  and  _12
REMARK    6  A    between atoms: _12  and  _13
REMARK    7  A    between atoms: _12  and  _15
REMARK    8  A    between atoms: _15  and  _16
REMARK    9  A    between atoms: _23  and  _24
REMARK   10  A    between atoms: _29  and  _31
REMARK   11  A    between atoms: _31  and  _32
REMARK   12  A    between atoms: _31  and  _34
REMARK   13  A    between atoms: _34  and  _35
REMARK   14  A    between atoms: _38  and  _40
REMARK   15  A    between atoms: _40  and  _41
REMARK   16  A    between atoms: _40  and  _43
REMARK   17  A    between atoms: _43  and  _44
REMARK   18  A    between atoms: _47  and  _49
REMARK   19  A    between atoms: _49  and  _50
REMARK   20  A    between atoms: _49  and  _52
REMARK   21  A    between atoms: _52  and  _53
REMARK   22  A    between atoms: _63  and  _65
REMARK   23  A    between atoms: _65  and  _66
REMARK   24  A    between atoms: _65  and  _68
REMARK   25  A    between atoms: _68  and  _69
REMARK   26  A    between atoms: _69  and  _70
REMARK   27  A    between atoms: _70  and  _71
REMARK   28  A    between atoms: _71  and  _72
REMARK   29  A    between atoms: _76  and  _78
REMARK   30  A    between atoms: _78  and  _79
REMARK   31  A    between atoms: _78  and  _81
REMARK   32  A    between atoms: _81  and  _82
REMARK   33  A    between atoms: _88  and  _90
REMARK   34  A    between atoms: _90  and  _91
REMARK   35  A    between atoms: _90  and  _93
REMARK   36  A    between atoms: _93  and  _94
REMARK   37  A    between atoms: _96  and  _98
REMARK   38  A    between atoms: _98  and  _99
REMARK   39  A    between atoms: _98  and  _101
REMARK   40  A    between atoms: _101  and  _102
REMARK   41  A    between atoms: _102  and  _103
REMARK   42  A    between atoms: _106  and  _108
REMARK   43  A    between atoms: _108  and  _109
REMARK   44  A    between atoms: _108  and  _111
REMARK   45  A    between atoms: _111  and  _112
REMARK   46  A    between atoms: _115  and  _117
REMARK   47  A    between atoms: _117  and  _118
REMARK   48  A    between atoms: _121  and  _123
REMARK   49  A    between atoms: _123  and  _124
REMARK   50  A    between atoms: _123  and  _126
REMARK   51  A    between atoms: _126  and  _127
REMARK   52  A    between atoms: _130  and  _132
REMARK   53  A    between atoms: _132  and  _133
REMARK   54  A    between atoms: _132  and  _135
REMARK   55  A    between atoms: _135  and  _136
REMARK   56  A    between atoms: _136  and  _137
REMARK   57  A    between atoms: _137  and  _138
REMARK   58  A    between atoms: _138  and  _139
REMARK   59  A    between atoms: _143  and  _145
REMARK   60  A    between atoms: _145  and  _146
REMARK   61  A    between atoms: _145  and  _148
REMARK   62  A    between atoms: _150  and  _152
REMARK   63  A    between atoms: _152  and  _153
REMARK   64  A    between atoms: _152  and  _155
REMARK   65  A    between atoms: _155  and  _156
REMARK   66  A    between atoms: _159  and  _161
REMARK   67  A    between atoms: _161  and  _162
REMARK   68  A    between atoms: _161  and  _164
REMARK   69  A    between atoms: _164  and  _165
REMARK   70  A    between atoms: _165  and  _166
REMARK   71  A    between atoms: _166  and  _167
REMARK   72  A    between atoms: _167  and  _168
REMARK   73  A    between atoms: _172  and  _174
REMARK   74  A    between atoms: _174  and  _175
REMARK   75  A    between atoms: _174  and  _177
REMARK   76  A    between atoms: _177  and  _178
REMARK   77  A    between atoms: _181  and  _183
REMARK   78  A    between atoms: _183  and  _184
REMARK   79  A    between atoms: _183  and  _186
REMARK   80  A    between atoms: _188  and  _190
REMARK   81  A    between atoms: _190  and  _191
REMARK   82  A    between atoms: _190  and  _193
REMARK   83  A    between atoms: _193  and  _194
REMARK   84  A    between atoms: _197  and  _199
REMARK   85  A    between atoms: _199  and  _200
REMARK   86  A    between atoms: _199  and  _202
REMARK   87  A    between atoms: _202  and  _203
REMARK   88  A    between atoms: _206  and  _208
REMARK   89  A    between atoms: _208  and  _209
REMARK   90  A    between atoms: _208  and  _211
REMARK   91  A    between atoms: _211  and  _212
REMARK   92  A    between atoms: _215  and  _217
REMARK   93  A    between atoms: _217  and  _218
REMARK   94  A    between atoms: _217  and  _220
REMARK   95  A    between atoms: _220  and  _221
REMARK   96  A    between atoms: _224  and  _226
REMARK   97  A    between atoms: _226  and  _227
REMARK   98  A    between atoms: _226  and  _229
REMARK   99  A    between atoms: _229  and  _230
REMARK  100  A    between atoms: _230  and  _231
REMARK  101  A    between atoms: _233  and  _235
REMARK  102  A    between atoms: _235  and  _236
REMARK  103  A    between atoms: _235  and  _238
REMARK  104  A    between atoms: _238  and  _239
REMARK  105  A    between atoms: _242  and  _244
REMARK  106  A    between atoms: _244  and  _245
REMARK  107  A    between atoms: _244  and  _247
REMARK  108  A    between atoms: _247  and  _248
REMARK  109  A    between atoms: _248  and  _249
REMARK  110  A    between atoms: _249  and  _250
REMARK  111  A    between atoms: _259  and  _261
REMARK  112  A    between atoms: _261  and  _262
REMARK  113  A    between atoms: _261  and  _264
REMARK  114  A    between atoms: _264  and  _265
REMARK  115  A    between atoms: _268  and  _270
REMARK  116  A    between atoms: _270  and  _271
REMARK  117  A    between atoms: _270  and  _273
REMARK  118  A    between atoms: _275  and  _277
REMARK  119  A    between atoms: _277  and  _278
REMARK  120  A    between atoms: _277  and  _280
REMARK  121  A    between atoms: _280  and  _281
REMARK  122  A    between atoms: _284  and  _286
REMARK  123  A    between atoms: _286  and  _287
REMARK  124  A    between atoms: _286  and  _289
REMARK  125  A    between atoms: _289  and  _290
REMARK  126  A    between atoms: _290  and  _291
REMARK  127  A    between atoms: _291  and  _292
REMARK  128  A    between atoms: _301  and  _303
REMARK  129  A    between atoms: _303  and  _304
REMARK  130  A    between atoms: _303  and  _306
REMARK  131  A    between atoms: _306  and  _307
REMARK  132  A    between atoms: _307  and  _308
REMARK  133  A    between atoms: _310  and  _312
REMARK  134  A    between atoms: _312  and  _313
REMARK  135  A    between atoms: _312  and  _315
REMARK  136  A    between atoms: _315  and  _316
REMARK  137  A    between atoms: _319  and  _321
REMARK  138  A    between atoms: _321  and  _322
REMARK  139  A    between atoms: _321  and  _324
REMARK  140  A    between atoms: _324  and  _325
REMARK  141  A    between atoms: _331  and  _333
REMARK  142  A    between atoms: _333  and  _334
REMARK  143  A    between atoms: _333  and  _336
REMARK  144  A    between atoms: _336  and  _337
REMARK  145  A    between atoms: _339  and  _341
REMARK  146  A    between atoms: _341  and  _342
REMARK  147  A    between atoms: _341  and  _344
REMARK  148  A    between atoms: _344  and  _345
REMARK  149  A    between atoms: _348  and  _350
REMARK  150  A    between atoms: _350  and  _351
REMARK  151  A    between atoms: _353  and  _355
REMARK  152  A    between atoms: _355  and  _356
REMARK  153  A    between atoms: _355  and  _358
REMARK  154  A    between atoms: _358  and  _359
REMARK  155  A    between atoms: _362  and  _364
REMARK  156  A    between atoms: _364  and  _365
REMARK  157  A    between atoms: _364  and  _367
REMARK  158  A    between atoms: _367  and  _368
REMARK  159  A    between atoms: _368  and  _369
REMARK  160  A    between atoms: _371  and  _373
REMARK  161  A    between atoms: _373  and  _374
REMARK  162  A    between atoms: _373  and  _376
REMARK  163  A    between atoms: _376  and  _377
REMARK  164  A    between atoms: _382  and  _384
REMARK  165  A    between atoms: _384  and  _385
REMARK  166  A    between atoms: _388  and  _390
REMARK  167  A    between atoms: _390  and  _391
REMARK  168  A    between atoms: _393  and  _395
REMARK  169  A    between atoms: _395  and  _396
REMARK  170  A    between atoms: _395  and  _398
REMARK  171  A    between atoms: _398  and  _399
REMARK  172  A    between atoms: _405  and  _407
REMARK  173  A    between atoms: _407  and  _408
REMARK  174  A    between atoms: _410  and  _412
REMARK  175  A    between atoms: _412  and  _413
REMARK  176  A    between atoms: _412  and  _415
REMARK  177  A    between atoms: _415  and  _416
REMARK  178  A    between atoms: _419  and  _421
REMARK  179  A    between atoms: _421  and  _422
REMARK  180  A    between atoms: _421  and  _424
REMARK  181  A    between atoms: _424  and  _425
REMARK  182  A    between atoms: _428  and  _430
REMARK  183  A    between atoms: _430  and  _431
REMARK  184  A    between atoms: _430  and  _433
REMARK  185  A    between atoms: _436  and  _438
REMARK  186  A    between atoms: _438  and  _439
REMARK  187  A    between atoms: _438  and  _441
REMARK  188  A    between atoms: _441  and  _442
REMARK  189  A    between atoms: _445  and  _447
REMARK  190  A    between atoms: _447  and  _448
REMARK  191  A    between atoms: _447  and  _450
REMARK  192  A    between atoms: _450  and  _451
REMARK  193  A    between atoms: _453  and  _455
REMARK  194  A    between atoms: _455  and  _456
REMARK  195  A    between atoms: _455  and  _458
REMARK  196  A    between atoms: _458  and  _459
REMARK  197  A    between atoms: _459  and  _460
REMARK  198  A    between atoms: _460  and  _461
REMARK  199  A    between atoms: _461  and  _462
REMARK  200  A    between atoms: _466  and  _468
REMARK  201  A    between atoms: _468  and  _469
REMARK  202  A    between atoms: _471  and  _473
REMARK  203  A    between atoms: _473  and  _474
REMARK  204  A    between atoms: _477  and  _479
REMARK  205  A    between atoms: _479  and  _480
REMARK  206  A    between atoms: _479  and  _482
REMARK  207  A    between atoms: _482  and  _483
REMARK  208  A    between atoms: _483  and  _484
REMARK  209  A    between atoms: _487  and  _489
REMARK  210  A    between atoms: _489  and  _490
REMARK  211  A    between atoms: _489  and  _492
REMARK  212  A    between atoms: _492  and  _493
REMARK  213  A    between atoms: _493  and  _494
REMARK  214  A    between atoms: _494  and  _495
REMARK  215  A    between atoms: _504  and  _506
REMARK  216  A    between atoms: _506  and  _507
REMARK  217  A    between atoms: _510  and  _512
REMARK  218  A    between atoms: _512  and  _513
REMARK  219  A    between atoms: _512  and  _515
REMARK  220  A    between atoms: _515  and  _516
REMARK  221  A    between atoms: _519  and  _521
REMARK  222  A    between atoms: _521  and  _522
REMARK  223  A    between atoms: _521  and  _524
REMARK  224  A    between atoms: _524  and  _525
REMARK  225  A    between atoms: _528  and  _530
REMARK  226  A    between atoms: _530  and  _531
REMARK  227  A    between atoms: _530  and  _533
REMARK  228  A    between atoms: _533  and  _534
REMARK  229  A    between atoms: _537  and  _539
REMARK  230  A    between atoms: _539  and  _540
REMARK  231  A    between atoms: _539  and  _542
REMARK  232  A    between atoms: _542  and  _543
REMARK  233  A    between atoms: _543  and  _544
REMARK  234  A    between atoms: _544  and  _545
REMARK  235  A    between atoms: _545  and  _546
REMARK  236  A    between atoms: _550  and  _552
REMARK  237  A    between atoms: _552  and  _553
REMARK  238  A    between atoms: _552  and  _555
REMARK  239  A    between atoms: _555  and  _556
REMARK  240  A    between atoms: _559  and  _561
REMARK  241  A    between atoms: _561  and  _562
REMARK  242  A    between atoms: _561  and  _564
REMARK  243  A    between atoms: _564  and  _565
REMARK  244  A    between atoms: _565  and  _566
REMARK  245  A    between atoms: _569  and  _570
REMARK  246  A    between atoms: _575  and  _577
REMARK  247  A    between atoms: _577  and  _578
REMARK  248  A    between atoms: _577  and  _580
REMARK  249  A    between atoms: _580  and  _581
REMARK  250  A    between atoms: _584  and  _586
REMARK  251  A    between atoms: _586  and  _587
REMARK  252  A    between atoms: _586  and  _589
REMARK  253  A    between atoms: _589  and  _590
REMARK  254  A    between atoms: _590  and  _591
REMARK  255  A    between atoms: _591  and  _592
REMARK  256  A    between atoms: _601  and  _603
REMARK  257  A    between atoms: _603  and  _604
REMARK  258  A    between atoms: _603  and  _606
REMARK  259  A    between atoms: _606  and  _607
REMARK  260  A    between atoms: _607  and  _608
REMARK  261  A    between atoms: _610  and  _612
REMARK  262  A    between atoms: _612  and  _613
REMARK  263  A    between atoms: _612  and  _615
REMARK  264  A    between atoms: _615  and  _616
REMARK                            x       y       z     vdW  Elec       q    Type
REMARK                         _______ _______ _______ _____ _____    ______ ____
ROOT
ATOM      1  O   HOH     1      51.082  10.455  86.347  0.00  0.00    +0.000 OA
ENDROOT
TORSDOF 0
REMARK  Name = ../refined-set-2016/1fcx/1fcx_pocket.pdb
REMARK  264 active torsions:
REMARK  status: ('A' for Active; 'I' for Inactive)
REMARK    1  A    between atoms: _1  and  _3
REMARK    2  A    between atoms: _3  and  _4
REMARK    3  A    between atoms: _3  and  _6
REMARK    4  A    between atoms: _6  and  _7
REMARK    5  A    between atoms: _10  and  _12
REMARK    6  A    between atoms: _12  and  _13
REMARK    7  A    between atoms: _12  and  _15
REMARK    8  A    between atoms: _15  and  _16
REMARK    9  A    between atoms: _23  and  _24
REMARK   10  A    between atoms: _29  and  _31
REMARK   11  A    between atoms: _31  and  _32
REMARK   12  A    between atoms: _31  and  _34
REMARK   13  A    between atoms: _34  and  _35
REMARK   14  A    between atoms: _38  and  _40
REMARK   15  A    between atoms: _40  and  _41
REMARK   16  A    between atoms: _40  and  _43
REMARK   17  A    between atoms: _43  and  _44
REMARK   18  A    between atoms: _47  and  _49
REMARK   19  A    between atoms: _49  and  _50
REMARK   20  A    between atoms: _49  and  _52
REMARK   21  A    between atoms: _52  and  _53
REMARK   22  A    between atoms: _63  and  _65
REMARK   23  A    between atoms: _65  and  _66
REMARK   24  A    between atoms: _65  and  _68
REMARK   25  A    between atoms: _68  and  _69
REMARK   26  A    between atoms: _69  and  _70
REMARK   27  A    between atoms: _70  and  _71
REMARK   28  A    between atoms: _71  and  _72
REMARK   29  A    between atoms: _76  and  _78
REMARK   30  A    between atoms: _78  and  _79
REMARK   31  A    between atoms: _78  and  _81
REMARK   32  A    between atoms: _81  and  _82
REMARK   33  A    between atoms: _88  and  _90
REMARK   34  A    between atoms: _90  and  _91
REMARK   35  A    between atoms: _90  and  _93
REMARK   36  A    between atoms: _93  and  _94
REMARK   37  A    between atoms: _96  and  _98
REMARK   38  A    between atoms: _98  and  _99
REMARK   39  A    between atoms: _98  and  _101
REMARK   40  A    between atoms: _101  and  _102
REMARK   41  A    between atoms: _102  and  _103
REMARK   42  A    between atoms: _106  and  _108
REMARK   43  A    between atoms: _108  and  _109
REMARK   44  A    between atoms: _108  and  _111
REMARK   45  A    between atoms: _111  and  _112
REMARK   46  A    between atoms: _115  and  _117
REMARK   47  A    between atoms: _117  and  _118
REMARK   48  A    between atoms: _121  and  _123
REMARK   49  A    between atoms: _123  and  _124
REMARK   50  A    between atoms: _123  and  _126
REMARK   51  A    between atoms: _126  and  _127
REMARK   52  A    between atoms: _130  and  _132
REMARK   53  A    between atoms: _132  and  _133
REMARK   54  A    between atoms: _132  and  _135
REMARK   55  A    between atoms: _135  and  _136
REMARK   56  A    between atoms: _136  and  _137
REMARK   57  A    between atoms: _137  and  _138
REMARK   58  A    between atoms: _138  and  _139
REMARK   59  A    between atoms: _143  and  _145
REMARK   60  A    between atoms: _145  and  _146
REMARK   61  A    between atoms: _145  and  _148
REMARK   62  A    between atoms: _150  and  _152
REMARK   63  A    between atoms: _152  and  _153
REMARK   64  A    between atoms: _152  and  _155
REMARK   65  A    between atoms: _155  and  _156
REMARK   66  A    between atoms: _159  and  _161
REMARK   67  A    between atoms: _161  and  _162
REMARK   68  A    between atoms: _161  and  _164
REMARK   69  A    between atoms: _164  and  _165
REMARK   70  A    between atoms: _165  and  _166
REMARK   71  A    between atoms: _166  and  _167
REMARK   72  A    between atoms: _167  and  _168
REMARK   73  A    between atoms: _172  and  _174
REMARK   74  A    between atoms: _174  and  _175
REMARK   75  A    between atoms: _174  and  _177
REMARK   76  A    between atoms: _177  and  _178
REMARK   77  A    between atoms: _181  and  _183
REMARK   78  A    between atoms: _183  and  _184
REMARK   79  A    between atoms: _183  and  _186
REMARK   80  A    between atoms: _188  and  _190
REMARK   81  A    between atoms: _190  and  _191
REMARK   82  A    between atoms: _190  and  _193
REMARK   83  A    between atoms: _193  and  _194
REMARK   84  A    between atoms: _197  and  _199
REMARK   85  A    between atoms: _199  and  _200
REMARK   86  A    between atoms: _199  and  _202
REMARK   87  A    between atoms: _202  and  _203
REMARK   88  A    between atoms: _206  and  _208
REMARK   89  A    between atoms: _208  and  _209
REMARK   90  A    between atoms: _208  and  _211
REMARK   91  A    between atoms: _211  and  _212
REMARK   92  A    between atoms: _215  and  _217
REMARK   93  A    between atoms: _217  and  _218
REMARK   94  A    between atoms: _217  and  _220
REMARK   95  A    between atoms: _220  and  _221
REMARK   96  A    between atoms: _224  and  _226
REMARK   97  A    between atoms: _226  and  _227
REMARK   98  A    between atoms: _226  and  _229
REMARK   99  A    between atoms: _229  and  _230
REMARK  100  A    between atoms: _230  and  _231
REMARK  101  A    between atoms: _233  and  _235
REMARK  102  A    between atoms: _235  and  _236
REMARK  103  A    between atoms: _235  and  _238
REMARK  104  A    between atoms: _238  and  _239
REMARK  105  A    between atoms: _242  and  _244
REMARK  106  A    between atoms: _244  and  _245
REMARK  107  A    between atoms: _244  and  _247
REMARK  108  A    between atoms: _247  and  _248
REMARK  109  A    between atoms: _248  and  _249
REMARK  110  A    between atoms: _249  and  _250
REMARK  111  A    between atoms: _259  and  _261
REMARK  112  A    between atoms: _261  and  _262
REMARK  113  A    between atoms: _261  and  _264
REMARK  114  A    between atoms: _264  and  _265
REMARK  115  A    between atoms: _268  and  _270
REMARK  116  A    between atoms: _270  and  _271
REMARK  117  A    between atoms: _270  and  _273
REMARK  118  A    between atoms: _275  and  _277
REMARK  119  A    between atoms: _277  and  _278
REMARK  120  A    between atoms: _277  and  _280
REMARK  121  A    between atoms: _280  and  _281
REMARK  122  A    between atoms: _284  and  _286
REMARK  123  A    between atoms: _286  and  _287
REMARK  124  A    between atoms: _286  and  _289
REMARK  125  A    between atoms: _289  and  _290
REMARK  126  A    between atoms: _290  and  _291
REMARK  127  A    between atoms: _291  and  _292
REMARK  128  A    between atoms: _301  and  _303
REMARK  129  A    between atoms: _303  and  _304
REMARK  130  A    between atoms: _303  and  _306
REMARK  131  A    between atoms: _306  and  _307
REMARK  132  A    between atoms: _307  and  _308
REMARK  133  A    between atoms: _310  and  _312
REMARK  134  A    between atoms: _312  and  _313
REMARK  135  A    between atoms: _312  and  _315
REMARK  136  A    between atoms: _315  and  _316
REMARK  137  A    between atoms: _319  and  _321
REMARK  138  A    between atoms: _321  and  _322
REMARK  139  A    between atoms: _321  and  _324
REMARK  140  A    between atoms: _324  and  _325
REMARK  141  A    between atoms: _331  and  _333
REMARK  142  A    between atoms: _333  and  _334
REMARK  143  A    between atoms: _333  and  _336
REMARK  144  A    between atoms: _336  and  _337
REMARK  145  A    between atoms: _339  and  _341
REMARK  146  A    between atoms: _341  and  _342
REMARK  147  A    between atoms: _341  and  _344
REMARK  148  A    between atoms: _344  and  _345
REMARK  149  A    between atoms: _348  and  _350
REMARK  150  A    between atoms: _350  and  _351
REMARK  151  A    between atoms: _353  and  _355
REMARK  152  A    between atoms: _355  and  _356
REMARK  153  A    between atoms: _355  and  _358
REMARK  154  A    between atoms: _358  and  _359
REMARK  155  A    between atoms: _362  and  _364
REMARK  156  A    between atoms: _364  and  _365
REMARK  157  A    between atoms: _364  and  _367
REMARK  158  A    between atoms: _367  and  _368
REMARK  159  A    between atoms: _368  and  _369
REMARK  160  A    between atoms: _371  and  _373
REMARK  161  A    between atoms: _373  and  _374
REMARK  162  A    between atoms: _373  and  _376
REMARK  163  A    between atoms: _376  and  _377
REMARK  164  A    between atoms: _382  and  _384
REMARK  165  A    between atoms: _384  and  _385
REMARK  166  A    between atoms: _388  and  _390
REMARK  167  A    between atoms: _390  and  _391
REMARK  168  A    between atoms: _393  and  _395
REMARK  169  A    between atoms: _395  and  _396
REMARK  170  A    between atoms: _395  and  _398
REMARK  171  A    between atoms: _398  and  _399
REMARK  172  A    between atoms: _405  and  _407
REMARK  173  A    between atoms: _407  and  _408
REMARK  174  A    between atoms: _410  and  _412
REMARK  175  A    between atoms: _412  and  _413
REMARK  176  A    between atoms: _412  and  _415
REMARK  177  A    between atoms: _415  and  _416
REMARK  178  A    between atoms: _419  and  _421
REMARK  179  A    between atoms: _421  and  _422
REMARK  180  A    between atoms: _421  and  _424
REMARK  181  A    between atoms: _424  and  _425
REMARK  182  A    between atoms: _428  and  _430
REMARK  183  A    between atoms: _430  and  _431
REMARK  184  A    between atoms: _430  and  _433
REMARK  185  A    between atoms: _436  and  _438
REMARK  186  A    between atoms: _438  and  _439
REMARK  187  A    between atoms: _438  and  _441
REMARK  188  A    between atoms: _441  and  _442
REMARK  189  A    between atoms: _445  and  _447
REMARK  190  A    between atoms: _447  and  _448
REMARK  191  A    between atoms: _447  and  _450
REMARK  192  A    between atoms: _450  and  _451
REMARK  193  A    between atoms: _453  and  _455
REMARK  194  A    between atoms: _455  and  _456
REMARK  195  A    between atoms: _455  and  _458
REMARK  196  A    between atoms: _458  and  _459
REMARK  197  A    between atoms: _459  and  _460
REMARK  198  A    between atoms: _460  and  _461
REMARK  199  A    between atoms: _461  and  _462
REMARK  200  A    between atoms: _466  and  _468
REMARK  201  A    between atoms: _468  and  _469
REMARK  202  A    between atoms: _471  and  _473
REMARK  203  A    between atoms: _473  and  _474
REMARK  204  A    between atoms: _477  and  _479
REMARK  205  A    between atoms: _479  and  _480
REMARK  206  A    between atoms: _479  and  _482
REMARK  207  A    between atoms: _482  and  _483
REMARK  208  A    between atoms: _483  and  _484
REMARK  209  A    between atoms: _487  and  _489
REMARK  210  A    between atoms: _489  and  _490
REMARK  211  A    between atoms: _489  and  _492
REMARK  212  A    between atoms: _492  and  _493
REMARK  213  A    between atoms: _493  and  _494
REMARK  214  A    between atoms: _494  and  _495
REMARK  215  A    between atoms: _504  and  _506
REMARK  216  A    between atoms: _506  and  _507
REMARK  217  A    between atoms: _510  and  _512
REMARK  218  A    between atoms: _512  and  _513
REMARK  219  A    between atoms: _512  and  _515
REMARK  220  A    between atoms: _515  and  _516
REMARK  221  A    between atoms: _519  and  _521
REMARK  222  A    between atoms: _521  and  _522
REMARK  223  A    between atoms: _521  and  _524
REMARK  224  A    between atoms: _524  and  _525
REMARK  225  A    between atoms: _528  and  _530
REMARK  226  A    between atoms: _530  and  _531
REMARK  227  A    between atoms: _530  and  _533
REMARK  228  A    between atoms: _533  and  _534
REMARK  229  A    between atoms: _537  and  _539
REMARK  230  A    between atoms: _539  and  _540
REMARK  231  A    between atoms: _539  and  _542
REMARK  232  A    between atoms: _542  and  _543
REMARK  233  A    between atoms: _543  and  _544
REMARK  234  A    between atoms: _544  and  _545
REMARK  235  A    between atoms: _545  and  _546
REMARK  236  A    between atoms: _550  and  _552
REMARK  237  A    between atoms: _552  and  _553
REMARK  238  A    between atoms: _552  and  _555
REMARK  239  A    between atoms: _555  and  _556
REMARK  240  A    between atoms: _559  and  _561
REMARK  241  A    between atoms: _561  and  _562
REMARK  242  A    between atoms: _561  and  _564
REMARK  243  A    between atoms: _564  and  _565
REMARK  244  A    between atoms: _565  and  _566
REMARK  245  A    between atoms: _569  and  _570
REMARK  246  A    between atoms: _575  and  _577
REMARK  247  A    between atoms: _577  and  _578
REMARK  248  A    between atoms: _577  and  _580
REMARK  249  A    between atoms: _580  and  _581
REMARK  250  A    between atoms: _584  and  _586
REMARK  251  A    between atoms: _586  and  _587
REMARK  252  A    between atoms: _586  and  _589
REMARK  253  A    between atoms: _589  and  _590
REMARK  254  A    between atoms: _590  and  _591
REMARK  255  A    between atoms: _591  and  _592
REMARK  256  A    between atoms: _601  and  _603
REMARK  257  A    between atoms: _603  and  _604
REMARK  258  A    between atoms: _603  and  _606
REMARK  259  A    between atoms: _606  and  _607
REMARK  260  A    between atoms: _607  and  _608
REMARK  261  A    between atoms: _610  and  _612
REMARK  262  A    between atoms: _612  and  _613
REMARK  263  A    between atoms: _612  and  _615
REMARK  264  A    between atoms: _615  and  _616
REMARK                            x       y       z     vdW  Elec       q    Type
REMARK                         _______ _______ _______ _____ _____    ______ ____
ROOT
ATOM      1  O   HOH     1      30.061  23.129  92.358  0.00  0.00    +0.000 OA
ENDROOT
TORSDOF 0
