REMARK  Name = ../refined-set-2016/1odi/1odi_pocket.pdb
REMARK  187 active torsions:
REMARK  status: ('A' for Active; 'I' for Inactive)
REMARK    1  A    between atoms: _2  and  _3
REMARK    2  A    between atoms: _8  and  _10
REMARK    3  A    between atoms: _10  and  _11
REMARK    4  A    between atoms: _13  and  _15
REMARK    5  A    between atoms: _15  and  _16
REMARK    6  A    between atoms: _15  and  _18
REMARK    7  A    between atoms: _18  and  _19
REMARK    8  A    between atoms: _22  and  _24
REMARK    9  A    between atoms: _24  and  _25
REMARK   10  A    between atoms: _24  and  _27
REMARK   11  A    between atoms: _27  and  _28
REMARK   12  A    between atoms: _28  and  _29
REMARK   13  A    between atoms: _29  and  _30
REMARK   14  A    between atoms: _39  and  _41
REMARK   15  A    between atoms: _41  and  _42
REMARK   16  A    between atoms: _41  and  _44
REMARK   17  A    between atoms: _44  and  _45
REMARK   18  A    between atoms: _48  and  _50
REMARK   19  A    between atoms: _50  and  _51
REMARK   20  A    between atoms: _53  and  _55
REMARK   21  A    between atoms: _55  and  _56
REMARK   22  A    between atoms: _55  and  _58
REMARK   23  A    between atoms: _58  and  _59
REMARK   24  A    between atoms: _59  and  _60
REMARK   25  A    between atoms: _62  and  _64
REMARK   26  A    between atoms: _64  and  _65
REMARK   27  A    between atoms: _67  and  _69
REMARK   28  A    between atoms: _69  and  _70
REMARK   29  A    between atoms: _69  and  _72
REMARK   30  A    between atoms: _72  and  _73
REMARK   31  A    between atoms: _76  and  _78
REMARK   32  A    between atoms: _78  and  _79
REMARK   33  A    between atoms: _78  and  _81
REMARK   34  A    between atoms: _81  and  _82
REMARK   35  A    between atoms: _82  and  _83
REMARK   36  A    between atoms: _83  and  _84
REMARK   37  A    between atoms: _93  and  _95
REMARK   38  A    between atoms: _95  and  _96
REMARK   39  A    between atoms: _98  and  _100
REMARK   40  A    between atoms: _100  and  _101
REMARK   41  A    between atoms: _100  and  _103
REMARK   42  A    between atoms: _103  and  _104
REMARK   43  A    between atoms: _107  and  _109
REMARK   44  A    between atoms: _109  and  _110
REMARK   45  A    between atoms: _113  and  _115
REMARK   46  A    between atoms: _115  and  _116
REMARK   47  A    between atoms: _118  and  _120
REMARK   48  A    between atoms: _120  and  _121
REMARK   49  A    between atoms: _124  and  _126
REMARK   50  A    between atoms: _126  and  _127
REMARK   51  A    between atoms: _130  and  _132
REMARK   52  A    between atoms: _132  and  _133
REMARK   53  A    between atoms: _136  and  _138
REMARK   54  A    between atoms: _138  and  _139
REMARK   55  A    between atoms: _138  and  _141
REMARK   56  A    between atoms: _141  and  _142
REMARK   57  A    between atoms: _144  and  _146
REMARK   58  A    between atoms: _146  and  _147
REMARK   59  A    between atoms: _146  and  _149
REMARK   60  A    between atoms: _149  and  _150
REMARK   61  A    between atoms: _150  and  _151
REMARK   62  A    between atoms: _154  and  _156
REMARK   63  A    between atoms: _156  and  _157
REMARK   64  A    between atoms: _156  and  _159
REMARK   65  A    between atoms: _159  and  _160
REMARK   66  A    between atoms: _163  and  _165
REMARK   67  A    between atoms: _165  and  _166
REMARK   68  A    between atoms: _169  and  _171
REMARK   69  A    between atoms: _171  and  _172
REMARK   70  A    between atoms: _171  and  _174
REMARK   71  A    between atoms: _174  and  _175
REMARK   72  A    between atoms: _181  and  _183
REMARK   73  A    between atoms: _183  and  _184
REMARK   74  A    between atoms: _183  and  _186
REMARK   75  A    between atoms: _186  and  _187
REMARK   76  A    between atoms: _192  and  _193
REMARK   77  A    between atoms: _195  and  _197
REMARK   78  A    between atoms: _197  and  _198
REMARK   79  A    between atoms: _201  and  _203
REMARK   80  A    between atoms: _203  and  _204
REMARK   81  A    between atoms: _203  and  _206
REMARK   82  A    between atoms: _206  and  _207
REMARK   83  A    between atoms: _210  and  _212
REMARK   84  A    between atoms: _212  and  _213
REMARK   85  A    between atoms: _216  and  _218
REMARK   86  A    between atoms: _218  and  _219
REMARK   87  A    between atoms: _218  and  _221
REMARK   88  A    between atoms: _221  and  _222
REMARK   89  A    between atoms: _228  and  _230
REMARK   90  A    between atoms: _230  and  _231
REMARK   91  A    between atoms: _230  and  _233
REMARK   92  A    between atoms: _233  and  _234
REMARK   93  A    between atoms: _234  and  _235
REMARK   94  A    between atoms: _238  and  _240
REMARK   95  A    between atoms: _240  and  _241
REMARK   96  A    between atoms: _240  and  _243
REMARK   97  A    between atoms: _243  and  _244
REMARK   98  A    between atoms: _244  and  _245
REMARK   99  A    between atoms: _247  and  _249
REMARK  100  A    between atoms: _249  and  _250
REMARK  101  A    between atoms: _249  and  _252
REMARK  102  A    between atoms: _252  and  _253
REMARK  103  A    between atoms: _253  and  _254
REMARK  104  A    between atoms: _257  and  _259
REMARK  105  A    between atoms: _259  and  _260
REMARK  106  A    between atoms: _263  and  _265
REMARK  107  A    between atoms: _265  and  _266
REMARK  108  A    between atoms: _265  and  _268
REMARK  109  A    between atoms: _268  and  _269
REMARK  110  A    between atoms: _272  and  _274
REMARK  111  A    between atoms: _274  and  _275
REMARK  112  A    between atoms: _278  and  _280
REMARK  113  A    between atoms: _280  and  _281
REMARK  114  A    between atoms: _280  and  _283
REMARK  115  A    between atoms: _286  and  _288
REMARK  116  A    between atoms: _288  and  _289
REMARK  117  A    between atoms: _288  and  _291
REMARK  118  A    between atoms: _291  and  _292
REMARK  119  A    between atoms: _294  and  _296
REMARK  120  A    between atoms: _296  and  _297
REMARK  121  A    between atoms: _296  and  _299
REMARK  122  A    between atoms: _299  and  _300
REMARK  123  A    between atoms: _305  and  _307
REMARK  124  A    between atoms: _307  and  _308
REMARK  125  A    between atoms: _307  and  _310
REMARK  126  A    between atoms: _310  and  _311
REMARK  127  A    between atoms: _311  and  _312
REMARK  128  A    between atoms: _312  and  _313
REMARK  129  A    between atoms: _322  and  _324
REMARK  130  A    between atoms: _324  and  _325
REMARK  131  A    between atoms: _324  and  _327
REMARK  132  A    between atoms: _327  and  _328
REMARK  133  A    between atoms: _331  and  _333
REMARK  134  A    between atoms: _333  and  _334
REMARK  135  A    between atoms: _336  and  _338
REMARK  136  A    between atoms: _338  and  _339
REMARK  137  A    between atoms: _338  and  _341
REMARK  138  A    between atoms: _341  and  _342
REMARK  139  A    between atoms: _345  and  _347
REMARK  140  A    between atoms: _347  and  _348
REMARK  141  A    between atoms: _347  and  _350
REMARK  142  A    between atoms: _350  and  _351
REMARK  143  A    between atoms: _354  and  _356
REMARK  144  A    between atoms: _356  and  _357
REMARK  145  A    between atoms: _360  and  _362
REMARK  146  A    between atoms: _362  and  _363
REMARK  147  A    between atoms: _362  and  _365
REMARK  148  A    between atoms: _365  and  _366
REMARK  149  A    between atoms: _369  and  _371
REMARK  150  A    between atoms: _371  and  _372
REMARK  151  A    between atoms: _371  and  _374
REMARK  152  A    between atoms: _374  and  _375
REMARK  153  A    between atoms: _380  and  _382
REMARK  154  A    between atoms: _382  and  _383
REMARK  155  A    between atoms: _382  and  _385
REMARK  156  A    between atoms: _385  and  _386
REMARK  157  A    between atoms: _386  and  _387
REMARK  158  A    between atoms: _387  and  _388
REMARK  159  A    between atoms: _397  and  _399
REMARK  160  A    between atoms: _399  and  _400
REMARK  161  A    between atoms: _399  and  _402
REMARK  162  A    between atoms: _402  and  _403
REMARK  163  A    between atoms: _408  and  _410
REMARK  164  A    between atoms: _410  and  _411
REMARK  165  A    between atoms: _410  and  _413
REMARK  166  A    between atoms: _413  and  _414
REMARK  167  A    between atoms: _414  and  _415
REMARK  168  A    between atoms: _415  and  _416
REMARK  169  A    between atoms: _426  and  _427
REMARK  170  A    between atoms: _432  and  _434
REMARK  171  A    between atoms: _434  and  _435
REMARK  172  A    between atoms: _434  and  _437
REMARK  173  A    between atoms: _437  and  _438
REMARK  174  A    between atoms: _440  and  _442
REMARK  175  A    between atoms: _442  and  _443
REMARK  176  A    between atoms: _442  and  _445
REMARK  177  A    between atoms: _445  and  _446
REMARK  178  A    between atoms: _449  and  _451
REMARK  179  A    between atoms: _451  and  _452
REMARK  180  A    between atoms: _451  and  _454
REMARK  181  A    between atoms: _454  and  _455
REMARK  182  A    between atoms: _455  and  _456
REMARK  183  A    between atoms: _459  and  _461
REMARK  184  A    between atoms: _461  and  _462
REMARK  185  A    between atoms: _461  and  _464
REMARK  186  A    between atoms: _464  and  _465
REMARK  187  A    between atoms: _465  and  _466
REMARK                            x       y       z     vdW  Elec       q    Type
REMARK                         _______ _______ _______ _____ _____    ______ ____
ROOT
ATOM      1  C   GLY A   2       4.004 -76.262-152.606  0.00  0.00    +0.243 C 
ATOM      2  N   ASP A   3       3.002 -75.405-152.465  0.00  0.00    -0.297 N 
ATOM      3  H   ASP A   3       3.045 -74.706-151.696  0.00  0.00    +0.150 HD
ATOM      4  O   GLY A   2       4.043 -77.103-153.505  0.00  0.00    -0.273 OA
ENDROOT
BRANCH   1   5
ATOM      5  CA  GLY A   2       5.123 -76.133-151.586  0.00  0.00    +0.176 C 
BRANCH   5   7
ATOM      6  C   PRO A   1       6.175 -73.976-151.854  0.00  0.00    +0.239 C 
ATOM      7  N   GLY A   2       5.338 -74.754-151.173  0.00  0.00    -0.296 N 
ATOM      8  H   GLY A   2       4.836 -74.376-150.344  0.00  0.00    +0.150 HD
ATOM      9  O   PRO A   1       6.808 -74.375-152.843  0.00  0.00    -0.274 OA
BRANCH   6  11
ATOM     10  N   PRO A   1       7.626 -72.111-151.951  0.00  0.00    -0.210 NA
ATOM     11  CA  PRO A   1       6.352 -72.542-151.371  0.00  0.00    +0.149 C 
ATOM     12  CB  PRO A   1       5.345 -71.587-152.006  0.00  0.00    +0.028 C 
ATOM     13  CG  PRO A   1       5.937 -71.360-153.368  0.00  0.00    +0.021 C 
ATOM     14  CD  PRO A   1       7.406 -71.158-153.051  0.00  0.00    +0.089 C 
ENDBRANCH   6  11
ENDBRANCH   5   7
ENDBRANCH   1   5
BRANCH   2  15
ATOM     15  CA  ASP A   3       1.848 -75.407-153.344  0.00  0.00    +0.148 C 
BRANCH  15  16
ATOM     16  C   ASP A   3       1.992 -74.425-154.508  0.00  0.00    +0.227 C 
ATOM     17  O   ASP A   3       2.240 -73.236-154.304  0.00  0.00    -0.286 OA
ENDBRANCH  15  16
BRANCH  15  18
ATOM     18  CB  ASP A   3       0.605 -75.090-152.499  0.00  0.00    +0.142 C 
BRANCH  18  19
ATOM     19  CG  ASP A   3      -0.611 -74.762-153.333  0.00  0.00    +0.367 C 
ATOM     20  OD2 ASP A   3      -1.410 -73.911-152.895  0.00  0.00    -0.246 OA
ATOM     21  OD1 ASP A   3      -0.783 -75.361-154.413  0.00  0.00    -0.246 OA
ENDBRANCH  18  19
ENDBRANCH  15  18
ENDBRANCH   2  15
TORSDOF 7
REMARK  Name = ../refined-set-2016/1odi/1odi_pocket.pdb
REMARK  187 active torsions:
REMARK  status: ('A' for Active; 'I' for Inactive)
REMARK    1  A    between atoms: _2  and  _3
REMARK    2  A    between atoms: _8  and  _10
REMARK    3  A    between atoms: _10  and  _11
REMARK    4  A    between atoms: _13  and  _15
REMARK    5  A    between atoms: _15  and  _16
REMARK    6  A    between atoms: _15  and  _18
REMARK    7  A    between atoms: _18  and  _19
REMARK    8  A    between atoms: _22  and  _24
REMARK    9  A    between atoms: _24  and  _25
REMARK   10  A    between atoms: _24  and  _27
REMARK   11  A    between atoms: _27  and  _28
REMARK   12  A    between atoms: _28  and  _29
REMARK   13  A    between atoms: _29  and  _30
REMARK   14  A    between atoms: _39  and  _41
REMARK   15  A    between atoms: _41  and  _42
REMARK   16  A    between atoms: _41  and  _44
REMARK   17  A    between atoms: _44  and  _45
REMARK   18  A    between atoms: _48  and  _50
REMARK   19  A    between atoms: _50  and  _51
REMARK   20  A    between atoms: _53  and  _55
REMARK   21  A    between atoms: _55  and  _56
REMARK   22  A    between atoms: _55  and  _58
REMARK   23  A    between atoms: _58  and  _59
REMARK   24  A    between atoms: _59  and  _60
REMARK   25  A    between atoms: _62  and  _64
REMARK   26  A    between atoms: _64  and  _65
REMARK   27  A    between atoms: _67  and  _69
REMARK   28  A    between atoms: _69  and  _70
REMARK   29  A    between atoms: _69  and  _72
REMARK   30  A    between atoms: _72  and  _73
REMARK   31  A    between atoms: _76  and  _78
REMARK   32  A    between atoms: _78  and  _79
REMARK   33  A    between atoms: _78  and  _81
REMARK   34  A    between atoms: _81  and  _82
REMARK   35  A    between atoms: _82  and  _83
REMARK   36  A    between atoms: _83  and  _84
REMARK   37  A    between atoms: _93  and  _95
REMARK   38  A    between atoms: _95  and  _96
REMARK   39  A    between atoms: _98  and  _100
REMARK   40  A    between atoms: _100  and  _101
REMARK   41  A    between atoms: _100  and  _103
REMARK   42  A    between atoms: _103  and  _104
REMARK   43  A    between atoms: _107  and  _109
REMARK   44  A    between atoms: _109  and  _110
REMARK   45  A    between atoms: _113  and  _115
REMARK   46  A    between atoms: _115  and  _116
REMARK   47  A    between atoms: _118  and  _120
REMARK   48  A    between atoms: _120  and  _121
REMARK   49  A    between atoms: _124  and  _126
REMARK   50  A    between atoms: _126  and  _127
REMARK   51  A    between atoms: _130  and  _132
REMARK   52  A    between atoms: _132  and  _133
REMARK   53  A    between atoms: _136  and  _138
REMARK   54  A    between atoms: _138  and  _139
REMARK   55  A    between atoms: _138  and  _141
REMARK   56  A    between atoms: _141  and  _142
REMARK   57  A    between atoms: _144  and  _146
REMARK   58  A    between atoms: _146  and  _147
REMARK   59  A    between atoms: _146  and  _149
REMARK   60  A    between atoms: _149  and  _150
REMARK   61  A    between atoms: _150  and  _151
REMARK   62  A    between atoms: _154  and  _156
REMARK   63  A    between atoms: _156  and  _157
REMARK   64  A    between atoms: _156  and  _159
REMARK   65  A    between atoms: _159  and  _160
REMARK   66  A    between atoms: _163  and  _165
REMARK   67  A    between atoms: _165  and  _166
REMARK   68  A    between atoms: _169  and  _171
REMARK   69  A    between atoms: _171  and  _172
REMARK   70  A    between atoms: _171  and  _174
REMARK   71  A    between atoms: _174  and  _175
REMARK   72  A    between atoms: _181  and  _183
REMARK   73  A    between atoms: _183  and  _184
REMARK   74  A    between atoms: _183  and  _186
REMARK   75  A    between atoms: _186  and  _187
REMARK   76  A    between atoms: _192  and  _193
REMARK   77  A    between atoms: _195  and  _197
REMARK   78  A    between atoms: _197  and  _198
REMARK   79  A    between atoms: _201  and  _203
REMARK   80  A    between atoms: _203  and  _204
REMARK   81  A    between atoms: _203  and  _206
REMARK   82  A    between atoms: _206  and  _207
REMARK   83  A    between atoms: _210  and  _212
REMARK   84  A    between atoms: _212  and  _213
REMARK   85  A    between atoms: _216  and  _218
REMARK   86  A    between atoms: _218  and  _219
REMARK   87  A    between atoms: _218  and  _221
REMARK   88  A    between atoms: _221  and  _222
REMARK   89  A    between atoms: _228  and  _230
REMARK   90  A    between atoms: _230  and  _231
REMARK   91  A    between atoms: _230  and  _233
REMARK   92  A    between atoms: _233  and  _234
REMARK   93  A    between atoms: _234  and  _235
REMARK   94  A    between atoms: _238  and  _240
REMARK   95  A    between atoms: _240  and  _241
REMARK   96  A    between atoms: _240  and  _243
REMARK   97  A    between atoms: _243  and  _244
REMARK   98  A    between atoms: _244  and  _245
REMARK   99  A    between atoms: _247  and  _249
REMARK  100  A    between atoms: _249  and  _250
REMARK  101  A    between atoms: _249  and  _252
REMARK  102  A    between atoms: _252  and  _253
REMARK  103  A    between atoms: _253  and  _254
REMARK  104  A    between atoms: _257  and  _259
REMARK  105  A    between atoms: _259  and  _260
REMARK  106  A    between atoms: _263  and  _265
REMARK  107  A    between atoms: _265  and  _266
REMARK  108  A    between atoms: _265  and  _268
REMARK  109  A    between atoms: _268  and  _269
REMARK  110  A    between atoms: _272  and  _274
REMARK  111  A    between atoms: _274  and  _275
REMARK  112  A    between atoms: _278  and  _280
REMARK  113  A    between atoms: _280  and  _281
REMARK  114  A    between atoms: _280  and  _283
REMARK  115  A    between atoms: _286  and  _288
REMARK  116  A    between atoms: _288  and  _289
REMARK  117  A    between atoms: _288  and  _291
REMARK  118  A    between atoms: _291  and  _292
REMARK  119  A    between atoms: _294  and  _296
REMARK  120  A    between atoms: _296  and  _297
REMARK  121  A    between atoms: _296  and  _299
REMARK  122  A    between atoms: _299  and  _300
REMARK  123  A    between atoms: _305  and  _307
REMARK  124  A    between atoms: _307  and  _308
REMARK  125  A    between atoms: _307  and  _310
REMARK  126  A    between atoms: _310  and  _311
REMARK  127  A    between atoms: _311  and  _312
REMARK  128  A    between atoms: _312  and  _313
REMARK  129  A    between atoms: _322  and  _324
REMARK  130  A    between atoms: _324  and  _325
REMARK  131  A    between atoms: _324  and  _327
REMARK  132  A    between atoms: _327  and  _328
REMARK  133  A    between atoms: _331  and  _333
REMARK  134  A    between atoms: _333  and  _334
REMARK  135  A    between atoms: _336  and  _338
REMARK  136  A    between atoms: _338  and  _339
REMARK  137  A    between atoms: _338  and  _341
REMARK  138  A    between atoms: _341  and  _342
REMARK  139  A    between atoms: _345  and  _347
REMARK  140  A    between atoms: _347  and  _348
REMARK  141  A    between atoms: _347  and  _350
REMARK  142  A    between atoms: _350  and  _351
REMARK  143  A    between atoms: _354  and  _356
REMARK  144  A    between atoms: _356  and  _357
REMARK  145  A    between atoms: _360  and  _362
REMARK  146  A    between atoms: _362  and  _363
REMARK  147  A    between atoms: _362  and  _365
REMARK  148  A    between atoms: _365  and  _366
REMARK  149  A    between atoms: _369  and  _371
REMARK  150  A    between atoms: _371  and  _372
REMARK  151  A    between atoms: _371  and  _374
REMARK  152  A    between atoms: _374  and  _375
REMARK  153  A    between atoms: _380  and  _382
REMARK  154  A    between atoms: _382  and  _383
REMARK  155  A    between atoms: _382  and  _385
REMARK  156  A    between atoms: _385  and  _386
REMARK  157  A    between atoms: _386  and  _387
REMARK  158  A    between atoms: _387  and  _388
REMARK  159  A    between atoms: _397  and  _399
REMARK  160  A    between atoms: _399  and  _400
REMARK  161  A    between atoms: _399  and  _402
REMARK  162  A    between atoms: _402  and  _403
REMARK  163  A    between atoms: _408  and  _410
REMARK  164  A    between atoms: _410  and  _411
REMARK  165  A    between atoms: _410  and  _413
REMARK  166  A    between atoms: _413  and  _414
REMARK  167  A    between atoms: _414  and  _415
REMARK  168  A    between atoms: _415  and  _416
REMARK  169  A    between atoms: _426  and  _427
REMARK  170  A    between atoms: _432  and  _434
REMARK  171  A    between atoms: _434  and  _435
REMARK  172  A    between atoms: _434  and  _437
REMARK  173  A    between atoms: _437  and  _438
REMARK  174  A    between atoms: _440  and  _442
REMARK  175  A    between atoms: _442  and  _443
REMARK  176  A    between atoms: _442  and  _445
REMARK  177  A    between atoms: _445  and  _446
REMARK  178  A    between atoms: _449  and  _451
REMARK  179  A    between atoms: _451  and  _452
REMARK  180  A    between atoms: _451  and  _454
REMARK  181  A    between atoms: _454  and  _455
REMARK  182  A    between atoms: _455  and  _456
REMARK  183  A    between atoms: _459  and  _461
REMARK  184  A    between atoms: _461  and  _462
REMARK  185  A    between atoms: _461  and  _464
REMARK  186  A    between atoms: _464  and  _465
REMARK  187  A    between atoms: _465  and  _466
REMARK                            x       y       z     vdW  Elec       q    Type
REMARK                         _______ _______ _______ _____ _____    ______ ____
ROOT
ATOM      1  NE  ARG A   1       1.138 -70.882-149.440  0.00  0.00    -0.265 N 
ATOM      2  CZ  ARG A   1       1.514 -72.121-149.149  0.00  0.00    +0.342 C 
ATOM      3  NH2 ARG A   1       0.601 -73.035-148.842  0.00  0.00    -0.292 N 
ATOM      4 HH21 ARG A   1       0.894 -74.006-148.614  0.00  0.00    +0.255 HD
ATOM      5 HH22 ARG A   1      -0.407 -72.779-148.830  0.00  0.00    +0.255 HD
ATOM      6  NH1 ARG A   1       2.800 -72.449-149.190  0.00  0.00    -0.292 N 
ATOM      7 HH11 ARG A   1       3.097 -73.419-148.962  0.00  0.00    +0.255 HD
ATOM      8 HH12 ARG A   1       3.511 -71.735-149.450  0.00  0.00    +0.255 HD
ATOM      9  HE  ARG A   1       0.124 -70.655-149.393  0.00  0.00    +0.259 HD
ENDROOT
BRANCH   1  10
ATOM     10  CD  ARG A   1       2.059 -69.823-149.821  0.00  0.00    +0.174 C 
BRANCH  10  11
ATOM     11  CG  ARG A   1       1.698 -69.303-151.188  0.00  0.00    +0.045 C 
BRANCH  11  12
ATOM     12  CB  ARG A   1       1.308 -70.446-152.119  0.00  0.00    +0.029 C 
BRANCH  12  13
ATOM     13  CA  ARG A   1       0.769 -69.964-153.467  0.00  0.00    +0.133 C 
BRANCH  13  14
ATOM     14  N   ARG A   1       0.231 -71.073-154.236  0.00  0.00    -0.239 NA
ATOM     15  H   ARG A   1       0.533 -72.045-154.022  0.00  0.00    +0.142 HD
ENDBRANCH  13  14
BRANCH  13  16
ATOM     16  C   ARG A   1       1.883 -69.318-154.269  0.00  0.00    +0.224 C 
ATOM     17  O   ARG A   1       2.109 -68.106-154.175  0.00  0.00    -0.287 OA
ENDBRANCH  13  16
ENDBRANCH  12  13
ENDBRANCH  11  12
ENDBRANCH  10  11
ENDBRANCH   1  10
TORSDOF 6
REMARK  Name = ../refined-set-2016/1odi/1odi_pocket.pdb
REMARK  187 active torsions:
REMARK  status: ('A' for Active; 'I' for Inactive)
REMARK    1  A    between atoms: _2  and  _3
REMARK    2  A    between atoms: _8  and  _10
REMARK    3  A    between atoms: _10  and  _11
REMARK    4  A    between atoms: _13  and  _15
REMARK    5  A    between atoms: _15  and  _16
REMARK    6  A    between atoms: _15  and  _18
REMARK    7  A    between atoms: _18  and  _19
REMARK    8  A    between atoms: _22  and  _24
REMARK    9  A    between atoms: _24  and  _25
REMARK   10  A    between atoms: _24  and  _27
REMARK   11  A    between atoms: _27  and  _28
REMARK   12  A    between atoms: _28  and  _29
REMARK   13  A    between atoms: _29  and  _30
REMARK   14  A    between atoms: _39  and  _41
REMARK   15  A    between atoms: _41  and  _42
REMARK   16  A    between atoms: _41  and  _44
REMARK   17  A    between atoms: _44  and  _45
REMARK   18  A    between atoms: _48  and  _50
REMARK   19  A    between atoms: _50  and  _51
REMARK   20  A    between atoms: _53  and  _55
REMARK   21  A    between atoms: _55  and  _56
REMARK   22  A    between atoms: _55  and  _58
REMARK   23  A    between atoms: _58  and  _59
REMARK   24  A    between atoms: _59  and  _60
REMARK   25  A    between atoms: _62  and  _64
REMARK   26  A    between atoms: _64  and  _65
REMARK   27  A    between atoms: _67  and  _69
REMARK   28  A    between atoms: _69  and  _70
REMARK   29  A    between atoms: _69  and  _72
REMARK   30  A    between atoms: _72  and  _73
REMARK   31  A    between atoms: _76  and  _78
REMARK   32  A    between atoms: _78  and  _79
REMARK   33  A    between atoms: _78  and  _81
REMARK   34  A    between atoms: _81  and  _82
REMARK   35  A    between atoms: _82  and  _83
REMARK   36  A    between atoms: _83  and  _84
REMARK   37  A    between atoms: _93  and  _95
REMARK   38  A    between atoms: _95  and  _96
REMARK   39  A    between atoms: _98  and  _100
REMARK   40  A    between atoms: _100  and  _101
REMARK   41  A    between atoms: _100  and  _103
REMARK   42  A    between atoms: _103  and  _104
REMARK   43  A    between atoms: _107  and  _109
REMARK   44  A    between atoms: _109  and  _110
REMARK   45  A    between atoms: _113  and  _115
REMARK   46  A    between atoms: _115  and  _116
REMARK   47  A    between atoms: _118  and  _120
REMARK   48  A    between atoms: _120  and  _121
REMARK   49  A    between atoms: _124  and  _126
REMARK   50  A    between atoms: _126  and  _127
REMARK   51  A    between atoms: _130  and  _132
REMARK   52  A    between atoms: _132  and  _133
REMARK   53  A    between atoms: _136  and  _138
REMARK   54  A    between atoms: _138  and  _139
REMARK   55  A    between atoms: _138  and  _141
REMARK   56  A    between atoms: _141  and  _142
REMARK   57  A    between atoms: _144  and  _146
REMARK   58  A    between atoms: _146  and  _147
REMARK   59  A    between atoms: _146  and  _149
REMARK   60  A    between atoms: _149  and  _150
REMARK   61  A    between atoms: _150  and  _151
REMARK   62  A    between atoms: _154  and  _156
REMARK   63  A    between atoms: _156  and  _157
REMARK   64  A    between atoms: _156  and  _159
REMARK   65  A    between atoms: _159  and  _160
REMARK   66  A    between atoms: _163  and  _165
REMARK   67  A    between atoms: _165  and  _166
REMARK   68  A    between atoms: _169  and  _171
REMARK   69  A    between atoms: _171  and  _172
REMARK   70  A    between atoms: _171  and  _174
REMARK   71  A    between atoms: _174  and  _175
REMARK   72  A    between atoms: _181  and  _183
REMARK   73  A    between atoms: _183  and  _184
REMARK   74  A    between atoms: _183  and  _186
REMARK   75  A    between atoms: _186  and  _187
REMARK   76  A    between atoms: _192  and  _193
REMARK   77  A    between atoms: _195  and  _197
REMARK   78  A    between atoms: _197  and  _198
REMARK   79  A    between atoms: _201  and  _203
REMARK   80  A    between atoms: _203  and  _204
REMARK   81  A    between atoms: _203  and  _206
REMARK   82  A    between atoms: _206  and  _207
REMARK   83  A    between atoms: _210  and  _212
REMARK   84  A    between atoms: _212  and  _213
REMARK   85  A    between atoms: _216  and  _218
REMARK   86  A    between atoms: _218  and  _219
REMARK   87  A    between atoms: _218  and  _221
REMARK   88  A    between atoms: _221  and  _222
REMARK   89  A    between atoms: _228  and  _230
REMARK   90  A    between atoms: _230  and  _231
REMARK   91  A    between atoms: _230  and  _233
REMARK   92  A    between atoms: _233  and  _234
REMARK   93  A    between atoms: _234  and  _235
REMARK   94  A    between atoms: _238  and  _240
REMARK   95  A    between atoms: _240  and  _241
REMARK   96  A    between atoms: _240  and  _243
REMARK   97  A    between atoms: _243  and  _244
REMARK   98  A    between atoms: _244  and  _245
REMARK   99  A    between atoms: _247  and  _249
REMARK  100  A    between atoms: _249  and  _250
REMARK  101  A    between atoms: _249  and  _252
REMARK  102  A    between atoms: _252  and  _253
REMARK  103  A    between atoms: _253  and  _254
REMARK  104  A    between atoms: _257  and  _259
REMARK  105  A    between atoms: _259  and  _260
REMARK  106  A    between atoms: _263  and  _265
REMARK  107  A    between atoms: _265  and  _266
REMARK  108  A    between atoms: _265  and  _268
REMARK  109  A    between atoms: _268  and  _269
REMARK  110  A    between atoms: _272  and  _274
REMARK  111  A    between atoms: _274  and  _275
REMARK  112  A    between atoms: _278  and  _280
REMARK  113  A    between atoms: _280  and  _281
REMARK  114  A    between atoms: _280  and  _283
REMARK  115  A    between atoms: _286  and  _288
REMARK  116  A    between atoms: _288  and  _289
REMARK  117  A    between atoms: _288  and  _291
REMARK  118  A    between atoms: _291  and  _292
REMARK  119  A    between atoms: _294  and  _296
REMARK  120  A    between atoms: _296  and  _297
REMARK  121  A    between atoms: _296  and  _299
REMARK  122  A    between atoms: _299  and  _300
REMARK  123  A    between atoms: _305  and  _307
REMARK  124  A    between atoms: _307  and  _308
REMARK  125  A    between atoms: _307  and  _310
REMARK  126  A    between atoms: _310  and  _311
REMARK  127  A    between atoms: _311  and  _312
REMARK  128  A    between atoms: _312  and  _313
REMARK  129  A    between atoms: _322  and  _324
REMARK  130  A    between atoms: _324  and  _325
REMARK  131  A    between atoms: _324  and  _327
REMARK  132  A    between atoms: _327  and  _328
REMARK  133  A    between atoms: _331  and  _333
REMARK  134  A    between atoms: _333  and  _334
REMARK  135  A    between atoms: _336  and  _338
REMARK  136  A    between atoms: _338  and  _339
REMARK  137  A    between atoms: _338  and  _341
REMARK  138  A    between atoms: _341  and  _342
REMARK  139  A    between atoms: _345  and  _347
REMARK  140  A    between atoms: _347  and  _348
REMARK  141  A    between atoms: _347  and  _350
REMARK  142  A    between atoms: _350  and  _351
REMARK  143  A    between atoms: _354  and  _356
REMARK  144  A    between atoms: _356  and  _357
REMARK  145  A    between atoms: _360  and  _362
REMARK  146  A    between atoms: _362  and  _363
REMARK  147  A    between atoms: _362  and  _365
REMARK  148  A    between atoms: _365  and  _366
REMARK  149  A    between atoms: _369  and  _371
REMARK  150  A    between atoms: _371  and  _372
REMARK  151  A    between atoms: _371  and  _374
REMARK  152  A    between atoms: _374  and  _375
REMARK  153  A    between atoms: _380  and  _382
REMARK  154  A    between atoms: _382  and  _383
REMARK  155  A    between atoms: _382  and  _385
REMARK  156  A    between atoms: _385  and  _386
REMARK  157  A    between atoms: _386  and  _387
REMARK  158  A    between atoms: _387  and  _388
REMARK  159  A    between atoms: _397  and  _399
REMARK  160  A    between atoms: _399  and  _400
REMARK  161  A    between atoms: _399  and  _402
REMARK  162  A    between atoms: _402  and  _403
REMARK  163  A    between atoms: _408  and  _410
REMARK  164  A    between atoms: _410  and  _411
REMARK  165  A    between atoms: _410  and  _413
REMARK  166  A    between atoms: _413  and  _414
REMARK  167  A    between atoms: _414  and  _415
REMARK  168  A    between atoms: _415  and  _416
REMARK  169  A    between atoms: _426  and  _427
REMARK  170  A    between atoms: _432  and  _434
REMARK  171  A    between atoms: _434  and  _435
REMARK  172  A    between atoms: _434  and  _437
REMARK  173  A    between atoms: _437  and  _438
REMARK  174  A    between atoms: _440  and  _442
REMARK  175  A    between atoms: _442  and  _443
REMARK  176  A    between atoms: _442  and  _445
REMARK  177  A    between atoms: _445  and  _446
REMARK  178  A    between atoms: _449  and  _451
REMARK  179  A    between atoms: _451  and  _452
REMARK  180  A    between atoms: _451  and  _454
REMARK  181  A    between atoms: _454  and  _455
REMARK  182  A    between atoms: _455  and  _456
REMARK  183  A    between atoms: _459  and  _461
REMARK  184  A    between atoms: _461  and  _462
REMARK  185  A    between atoms: _461  and  _464
REMARK  186  A    between atoms: _464  and  _465
REMARK  187  A    between atoms: _465  and  _466
REMARK                            x       y       z     vdW  Elec       q    Type
REMARK                         _______ _______ _______ _____ _____    ______ ____
ROOT
ATOM      1  CA  MET A   3       5.019 -81.848-151.186  0.00  0.00    +0.149 C 
ENDROOT
BRANCH   1   4
ATOM      2  C   GLY A   2       5.704 -80.276-152.907  0.00  0.00    +0.243 C 
ATOM      3  O   GLY A   2       6.304 -79.583-152.086  0.00  0.00    -0.273 OA
ATOM      4  N   MET A   3       5.055 -81.386-152.571  0.00  0.00    -0.297 N 
ATOM      5  H   MET A   3       4.565 -81.934-153.306  0.00  0.00    +0.150 HD
BRANCH   2   6
ATOM      6  CA  GLY A   2       5.700 -79.856-154.367  0.00  0.00    +0.176 C 
BRANCH   6   8
ATOM      7  C   THR A   1       7.834 -78.761-154.610  0.00  0.00    +0.241 C 
ATOM      8  N   GLY A   2       6.527 -78.667-154.392  0.00  0.00    -0.295 N 
ATOM      9  H   GLY A   2       6.095 -77.734-154.238  0.00  0.00    +0.150 HD
ATOM     10  O   THR A   1       8.398 -79.823-154.862  0.00  0.00    -0.274 OA
BRANCH   7  11
ATOM     11  CA  THR A   1       8.626 -77.462-154.551  0.00  0.00    +0.172 C 
BRANCH  11  12
ATOM     12  CB  THR A   1       9.196 -77.347-153.121  0.00  0.00    +0.135 C 
ATOM     13  CG2 THR A   1      10.004 -76.066-152.958  0.00  0.00    +0.034 C 
BRANCH  12  14
ATOM     14  OG1 THR A   1       8.116 -77.342-152.181  0.00  0.00    -0.383 OA
ATOM     15  HG1 THR A   1       7.601 -78.183-152.267  0.00  0.00    +0.210 HD
ENDBRANCH  12  14
ENDBRANCH  11  12
BRANCH  11  16
ATOM     16  N   THR A   1       7.836 -76.287-154.908  0.00  0.00    -0.236 NA
ATOM     17  H   THR A   1       7.195 -75.865-154.206  0.00  0.00    +0.142 HD
ENDBRANCH  11  16
ENDBRANCH   7  11
ENDBRANCH   6   8
ENDBRANCH   2   6
ENDBRANCH   1   4
BRANCH   1  18
ATOM     18  C   MET A   3       5.988 -83.007-150.946  0.00  0.00    +0.241 C 
ATOM     19  N   GLY A   4       6.719 -82.944-149.839  0.00  0.00    -0.295 N 
ATOM     20  H   GLY A   4       6.630 -82.125-149.204  0.00  0.00    +0.150 HD
ATOM     21  O   MET A   3       6.059 -83.948-151.740  0.00  0.00    -0.273 OA
BRANCH  19  22
ATOM     22  CA  GLY A   4       7.642 -84.015-149.514  0.00  0.00    +0.176 C 
BRANCH  22  23
ATOM     23  C   GLY A   4       9.066 -83.694-149.884  0.00  0.00    +0.243 C 
ATOM     24  N   THR A   5       9.996 -84.119-149.037  0.00  0.00    -0.296 N 
ATOM     25  H   THR A   5       9.701 -84.645-148.190  0.00  0.00    +0.150 HD
ATOM     26  O   GLY A   4       9.318 -83.077-150.921  0.00  0.00    -0.273 OA
BRANCH  24  27
ATOM     27  CA  THR A   5      11.418 -83.874-149.254  0.00  0.00    +0.164 C 
BRANCH  27  28
ATOM     28  C   THR A   5      11.957 -84.477-150.546  0.00  0.00    +0.229 C 
ATOM     29  O   THR A   5      12.957 -84.004-151.085  0.00  0.00    -0.286 OA
ENDBRANCH  27  28
BRANCH  27  30
ATOM     30  CB  THR A   5      12.249 -84.405-148.079  0.00  0.00    +0.136 C 
ATOM     31  CG2 THR A   5      12.081 -83.510-146.857  0.00  0.00    +0.034 C 
BRANCH  30  32
ATOM     32  OG1 THR A   5      11.827 -85.732-147.761  0.00  0.00    -0.382 OA
ATOM     33  HG1 THR A   5      11.957 -86.316-148.550  0.00  0.00    +0.210 HD
ENDBRANCH  30  32
ENDBRANCH  27  30
ENDBRANCH  24  27
ENDBRANCH  22  23
ENDBRANCH  19  22
ENDBRANCH   1  18
BRANCH   1  34
ATOM     34  CB  MET A   3       3.604 -82.312-150.805  0.00  0.00    +0.041 C 
BRANCH  34  35
ATOM     35  CG  MET A   3       2.516 -81.290-151.010  0.00  0.00    +0.060 C 
BRANCH  35  36
ATOM     36  SD  MET A   3       0.905 -81.843-150.393  0.00  0.00    -0.139 S 
ATOM     37  CE  MET A   3       0.434 -83.038-151.704  0.00  0.00    +0.069 C 
ENDBRANCH  35  36
ENDBRANCH  34  35
ENDBRANCH   1  34
TORSDOF 17
REMARK  Name = ../refined-set-2016/1odi/1odi_pocket.pdb
REMARK  187 active torsions:
REMARK  status: ('A' for Active; 'I' for Inactive)
REMARK    1  A    between atoms: _2  and  _3
REMARK    2  A    between atoms: _8  and  _10
REMARK    3  A    between atoms: _10  and  _11
REMARK    4  A    between atoms: _13  and  _15
REMARK    5  A    between atoms: _15  and  _16
REMARK    6  A    between atoms: _15  and  _18
REMARK    7  A    between atoms: _18  and  _19
REMARK    8  A    between atoms: _22  and  _24
REMARK    9  A    between atoms: _24  and  _25
REMARK   10  A    between atoms: _24  and  _27
REMARK   11  A    between atoms: _27  and  _28
REMARK   12  A    between atoms: _28  and  _29
REMARK   13  A    between atoms: _29  and  _30
REMARK   14  A    between atoms: _39  and  _41
REMARK   15  A    between atoms: _41  and  _42
REMARK   16  A    between atoms: _41  and  _44
REMARK   17  A    between atoms: _44  and  _45
REMARK   18  A    between atoms: _48  and  _50
REMARK   19  A    between atoms: _50  and  _51
REMARK   20  A    between atoms: _53  and  _55
REMARK   21  A    between atoms: _55  and  _56
REMARK   22  A    between atoms: _55  and  _58
REMARK   23  A    between atoms: _58  and  _59
REMARK   24  A    between atoms: _59  and  _60
REMARK   25  A    between atoms: _62  and  _64
REMARK   26  A    between atoms: _64  and  _65
REMARK   27  A    between atoms: _67  and  _69
REMARK   28  A    between atoms: _69  and  _70
REMARK   29  A    between atoms: _69  and  _72
REMARK   30  A    between atoms: _72  and  _73
REMARK   31  A    between atoms: _76  and  _78
REMARK   32  A    between atoms: _78  and  _79
REMARK   33  A    between atoms: _78  and  _81
REMARK   34  A    between atoms: _81  and  _82
REMARK   35  A    between atoms: _82  and  _83
REMARK   36  A    between atoms: _83  and  _84
REMARK   37  A    between atoms: _93  and  _95
REMARK   38  A    between atoms: _95  and  _96
REMARK   39  A    between atoms: _98  and  _100
REMARK   40  A    between atoms: _100  and  _101
REMARK   41  A    between atoms: _100  and  _103
REMARK   42  A    between atoms: _103  and  _104
REMARK   43  A    between atoms: _107  and  _109
REMARK   44  A    between atoms: _109  and  _110
REMARK   45  A    between atoms: _113  and  _115
REMARK   46  A    between atoms: _115  and  _116
REMARK   47  A    between atoms: _118  and  _120
REMARK   48  A    between atoms: _120  and  _121
REMARK   49  A    between atoms: _124  and  _126
REMARK   50  A    between atoms: _126  and  _127
REMARK   51  A    between atoms: _130  and  _132
REMARK   52  A    between atoms: _132  and  _133
REMARK   53  A    between atoms: _136  and  _138
REMARK   54  A    between atoms: _138  and  _139
REMARK   55  A    between atoms: _138  and  _141
REMARK   56  A    between atoms: _141  and  _142
REMARK   57  A    between atoms: _144  and  _146
REMARK   58  A    between atoms: _146  and  _147
REMARK   59  A    between atoms: _146  and  _149
REMARK   60  A    between atoms: _149  and  _150
REMARK   61  A    between atoms: _150  and  _151
REMARK   62  A    between atoms: _154  and  _156
REMARK   63  A    between atoms: _156  and  _157
REMARK   64  A    between atoms: _156  and  _159
REMARK   65  A    between atoms: _159  and  _160
REMARK   66  A    between atoms: _163  and  _165
REMARK   67  A    between atoms: _165  and  _166
REMARK   68  A    between atoms: _169  and  _171
REMARK   69  A    between atoms: _171  and  _172
REMARK   70  A    between atoms: _171  and  _174
REMARK   71  A    between atoms: _174  and  _175
REMARK   72  A    between atoms: _181  and  _183
REMARK   73  A    between atoms: _183  and  _184
REMARK   74  A    between atoms: _183  and  _186
REMARK   75  A    between atoms: _186  and  _187
REMARK   76  A    between atoms: _192  and  _193
REMARK   77  A    between atoms: _195  and  _197
REMARK   78  A    between atoms: _197  and  _198
REMARK   79  A    between atoms: _201  and  _203
REMARK   80  A    between atoms: _203  and  _204
REMARK   81  A    between atoms: _203  and  _206
REMARK   82  A    between atoms: _206  and  _207
REMARK   83  A    between atoms: _210  and  _212
REMARK   84  A    between atoms: _212  and  _213
REMARK   85  A    between atoms: _216  and  _218
REMARK   86  A    between atoms: _218  and  _219
REMARK   87  A    between atoms: _218  and  _221
REMARK   88  A    between atoms: _221  and  _222
REMARK   89  A    between atoms: _228  and  _230
REMARK   90  A    between atoms: _230  and  _231
REMARK   91  A    between atoms: _230  and  _233
REMARK   92  A    between atoms: _233  and  _234
REMARK   93  A    between atoms: _234  and  _235
REMARK   94  A    between atoms: _238  and  _240
REMARK   95  A    between atoms: _240  and  _241
REMARK   96  A    between atoms: _240  and  _243
REMARK   97  A    between atoms: _243  and  _244
REMARK   98  A    between atoms: _244  and  _245
REMARK   99  A    between atoms: _247  and  _249
REMARK  100  A    between atoms: _249  and  _250
REMARK  101  A    between atoms: _249  and  _252
REMARK  102  A    between atoms: _252  and  _253
REMARK  103  A    between atoms: _253  and  _254
REMARK  104  A    between atoms: _257  and  _259
REMARK  105  A    between atoms: _259  and  _260
REMARK  106  A    between atoms: _263  and  _265
REMARK  107  A    between atoms: _265  and  _266
REMARK  108  A    between atoms: _265  and  _268
REMARK  109  A    between atoms: _268  and  _269
REMARK  110  A    between atoms: _272  and  _274
REMARK  111  A    between atoms: _274  and  _275
REMARK  112  A    between atoms: _278  and  _280
REMARK  113  A    between atoms: _280  and  _281
REMARK  114  A    between atoms: _280  and  _283
REMARK  115  A    between atoms: _286  and  _288
REMARK  116  A    between atoms: _288  and  _289
REMARK  117  A    between atoms: _288  and  _291
REMARK  118  A    between atoms: _291  and  _292
REMARK  119  A    between atoms: _294  and  _296
REMARK  120  A    between atoms: _296  and  _297
REMARK  121  A    between atoms: _296  and  _299
REMARK  122  A    between atoms: _299  and  _300
REMARK  123  A    between atoms: _305  and  _307
REMARK  124  A    between atoms: _307  and  _308
REMARK  125  A    between atoms: _307  and  _310
REMARK  126  A    between atoms: _310  and  _311
REMARK  127  A    between atoms: _311  and  _312
REMARK  128  A    between atoms: _312  and  _313
REMARK  129  A    between atoms: _322  and  _324
REMARK  130  A    between atoms: _324  and  _325
REMARK  131  A    between atoms: _324  and  _327
REMARK  132  A    between atoms: _327  and  _328
REMARK  133  A    between atoms: _331  and  _333
REMARK  134  A    between atoms: _333  and  _334
REMARK  135  A    between atoms: _336  and  _338
REMARK  136  A    between atoms: _338  and  _339
REMARK  137  A    between atoms: _338  and  _341
REMARK  138  A    between atoms: _341  and  _342
REMARK  139  A    between atoms: _345  and  _347
REMARK  140  A    between atoms: _347  and  _348
REMARK  141  A    between atoms: _347  and  _350
REMARK  142  A    between atoms: _350  and  _351
REMARK  143  A    between atoms: _354  and  _356
REMARK  144  A    between atoms: _356  and  _357
REMARK  145  A    between atoms: _360  and  _362
REMARK  146  A    between atoms: _362  and  _363
REMARK  147  A    between atoms: _362  and  _365
REMARK  148  A    between atoms: _365  and  _366
REMARK  149  A    between atoms: _369  and  _371
REMARK  150  A    between atoms: _371  and  _372
REMARK  151  A    between atoms: _371  and  _374
REMARK  152  A    between atoms: _374  and  _375
REMARK  153  A    between atoms: _380  and  _382
REMARK  154  A    between atoms: _382  and  _383
REMARK  155  A    between atoms: _382  and  _385
REMARK  156  A    between atoms: _385  and  _386
REMARK  157  A    between atoms: _386  and  _387
REMARK  158  A    between atoms: _387  and  _388
REMARK  159  A    between atoms: _397  and  _399
REMARK  160  A    between atoms: _399  and  _400
REMARK  161  A    between atoms: _399  and  _402
REMARK  162  A    between atoms: _402  and  _403
REMARK  163  A    between atoms: _408  and  _410
REMARK  164  A    between atoms: _410  and  _411
REMARK  165  A    between atoms: _410  and  _413
REMARK  166  A    between atoms: _413  and  _414
REMARK  167  A    between atoms: _414  and  _415
REMARK  168  A    between atoms: _415  and  _416
REMARK  169  A    between atoms: _426  and  _427
REMARK  170  A    between atoms: _432  and  _434
REMARK  171  A    between atoms: _434  and  _435
REMARK  172  A    between atoms: _434  and  _437
REMARK  173  A    between atoms: _437  and  _438
REMARK  174  A    between atoms: _440  and  _442
REMARK  175  A    between atoms: _442  and  _443
REMARK  176  A    between atoms: _442  and  _445
REMARK  177  A    between atoms: _445  and  _446
REMARK  178  A    between atoms: _449  and  _451
REMARK  179  A    between atoms: _451  and  _452
REMARK  180  A    between atoms: _451  and  _454
REMARK  181  A    between atoms: _454  and  _455
REMARK  182  A    between atoms: _455  and  _456
REMARK  183  A    between atoms: _459  and  _461
REMARK  184  A    between atoms: _461  and  _462
REMARK  185  A    between atoms: _461  and  _464
REMARK  186  A    between atoms: _464  and  _465
REMARK  187  A    between atoms: _465  and  _466
REMARK                            x       y       z     vdW  Elec       q    Type
REMARK                         _______ _______ _______ _____ _____    ______ ____
ROOT
ATOM      1  NE  ARG A   1       8.800 -76.058-145.759  0.00  0.00    -0.265 N 
ATOM      2  HE  ARG A   1       8.971 -76.426-144.802  0.00  0.00    +0.259 HD
ATOM      3  CZ  ARG A   1       7.552 -76.094-146.224  0.00  0.00    +0.342 C 
ATOM      4  NH2 ARG A   1       6.565 -76.528-145.446  0.00  0.00    -0.292 N 
ATOM      5 HH21 ARG A   1       6.767 -76.839-144.475  0.00  0.00    +0.255 HD
ATOM      6 HH22 ARG A   1       5.591 -76.556-145.809  0.00  0.00    +0.255 HD
ATOM      7  NH1 ARG A   1       7.276 -75.653-147.447  0.00  0.00    -0.292 N 
ATOM      8 HH11 ARG A   1       6.299 -75.684-147.803  0.00  0.00    +0.255 HD
ATOM      9 HH12 ARG A   1       8.037 -75.277-148.048  0.00  0.00    +0.255 HD
ENDROOT
BRANCH   1  10
ATOM     10  CD  ARG A   1       9.944 -75.537-146.501  0.00  0.00    +0.174 C 
BRANCH  10  11
ATOM     11  CG  ARG A   1       9.742 -74.066-146.889  0.00  0.00    +0.045 C 
BRANCH  11  12
ATOM     12  CB  ARG A   1      11.056 -73.384-147.273  0.00  0.00    +0.029 C 
BRANCH  12  13
ATOM     13  CA  ARG A   1      10.918 -71.965-147.856  0.00  0.00    +0.133 C 
BRANCH  13  14
ATOM     14  N   ARG A   1      12.184 -71.269-147.751  0.00  0.00    -0.239 NA
ATOM     15  H   ARG A   1      12.917 -71.646-147.116  0.00  0.00    +0.142 HD
ENDBRANCH  13  14
BRANCH  13  16
ATOM     16  C   ARG A   1       9.833 -71.182-147.118  0.00  0.00    +0.224 C 
ATOM     17  O   ARG A   1      10.008 -70.784-145.966  0.00  0.00    -0.287 OA
ENDBRANCH  13  16
ENDBRANCH  12  13
ENDBRANCH  11  12
ENDBRANCH  10  11
ENDBRANCH   1  10
TORSDOF 6
REMARK  Name = ../refined-set-2016/1odi/1odi_pocket.pdb
REMARK  187 active torsions:
REMARK  status: ('A' for Active; 'I' for Inactive)
REMARK    1  A    between atoms: _2  and  _3
REMARK    2  A    between atoms: _8  and  _10
REMARK    3  A    between atoms: _10  and  _11
REMARK    4  A    between atoms: _13  and  _15
REMARK    5  A    between atoms: _15  and  _16
REMARK    6  A    between atoms: _15  and  _18
REMARK    7  A    between atoms: _18  and  _19
REMARK    8  A    between atoms: _22  and  _24
REMARK    9  A    between atoms: _24  and  _25
REMARK   10  A    between atoms: _24  and  _27
REMARK   11  A    between atoms: _27  and  _28
REMARK   12  A    between atoms: _28  and  _29
REMARK   13  A    between atoms: _29  and  _30
REMARK   14  A    between atoms: _39  and  _41
REMARK   15  A    between atoms: _41  and  _42
REMARK   16  A    between atoms: _41  and  _44
REMARK   17  A    between atoms: _44  and  _45
REMARK   18  A    between atoms: _48  and  _50
REMARK   19  A    between atoms: _50  and  _51
REMARK   20  A    between atoms: _53  and  _55
REMARK   21  A    between atoms: _55  and  _56
REMARK   22  A    between atoms: _55  and  _58
REMARK   23  A    between atoms: _58  and  _59
REMARK   24  A    between atoms: _59  and  _60
REMARK   25  A    between atoms: _62  and  _64
REMARK   26  A    between atoms: _64  and  _65
REMARK   27  A    between atoms: _67  and  _69
REMARK   28  A    between atoms: _69  and  _70
REMARK   29  A    between atoms: _69  and  _72
REMARK   30  A    between atoms: _72  and  _73
REMARK   31  A    between atoms: _76  and  _78
REMARK   32  A    between atoms: _78  and  _79
REMARK   33  A    between atoms: _78  and  _81
REMARK   34  A    between atoms: _81  and  _82
REMARK   35  A    between atoms: _82  and  _83
REMARK   36  A    between atoms: _83  and  _84
REMARK   37  A    between atoms: _93  and  _95
REMARK   38  A    between atoms: _95  and  _96
REMARK   39  A    between atoms: _98  and  _100
REMARK   40  A    between atoms: _100  and  _101
REMARK   41  A    between atoms: _100  and  _103
REMARK   42  A    between atoms: _103  and  _104
REMARK   43  A    between atoms: _107  and  _109
REMARK   44  A    between atoms: _109  and  _110
REMARK   45  A    between atoms: _113  and  _115
REMARK   46  A    between atoms: _115  and  _116
REMARK   47  A    between atoms: _118  and  _120
REMARK   48  A    between atoms: _120  and  _121
REMARK   49  A    between atoms: _124  and  _126
REMARK   50  A    between atoms: _126  and  _127
REMARK   51  A    between atoms: _130  and  _132
REMARK   52  A    between atoms: _132  and  _133
REMARK   53  A    between atoms: _136  and  _138
REMARK   54  A    between atoms: _138  and  _139
REMARK   55  A    between atoms: _138  and  _141
REMARK   56  A    between atoms: _141  and  _142
REMARK   57  A    between atoms: _144  and  _146
REMARK   58  A    between atoms: _146  and  _147
REMARK   59  A    between atoms: _146  and  _149
REMARK   60  A    between atoms: _149  and  _150
REMARK   61  A    between atoms: _150  and  _151
REMARK   62  A    between atoms: _154  and  _156
REMARK   63  A    between atoms: _156  and  _157
REMARK   64  A    between atoms: _156  and  _159
REMARK   65  A    between atoms: _159  and  _160
REMARK   66  A    between atoms: _163  and  _165
REMARK   67  A    between atoms: _165  and  _166
REMARK   68  A    between atoms: _169  and  _171
REMARK   69  A    between atoms: _171  and  _172
REMARK   70  A    between atoms: _171  and  _174
REMARK   71  A    between atoms: _174  and  _175
REMARK   72  A    between atoms: _181  and  _183
REMARK   73  A    between atoms: _183  and  _184
REMARK   74  A    between atoms: _183  and  _186
REMARK   75  A    between atoms: _186  and  _187
REMARK   76  A    between atoms: _192  and  _193
REMARK   77  A    between atoms: _195  and  _197
REMARK   78  A    between atoms: _197  and  _198
REMARK   79  A    between atoms: _201  and  _203
REMARK   80  A    between atoms: _203  and  _204
REMARK   81  A    between atoms: _203  and  _206
REMARK   82  A    between atoms: _206  and  _207
REMARK   83  A    between atoms: _210  and  _212
REMARK   84  A    between atoms: _212  and  _213
REMARK   85  A    between atoms: _216  and  _218
REMARK   86  A    between atoms: _218  and  _219
REMARK   87  A    between atoms: _218  and  _221
REMARK   88  A    between atoms: _221  and  _222
REMARK   89  A    between atoms: _228  and  _230
REMARK   90  A    between atoms: _230  and  _231
REMARK   91  A    between atoms: _230  and  _233
REMARK   92  A    between atoms: _233  and  _234
REMARK   93  A    between atoms: _234  and  _235
REMARK   94  A    between atoms: _238  and  _240
REMARK   95  A    between atoms: _240  and  _241
REMARK   96  A    between atoms: _240  and  _243
REMARK   97  A    between atoms: _243  and  _244
REMARK   98  A    between atoms: _244  and  _245
REMARK   99  A    between atoms: _247  and  _249
REMARK  100  A    between atoms: _249  and  _250
REMARK  101  A    between atoms: _249  and  _252
REMARK  102  A    between atoms: _252  and  _253
REMARK  103  A    between atoms: _253  and  _254
REMARK  104  A    between atoms: _257  and  _259
REMARK  105  A    between atoms: _259  and  _260
REMARK  106  A    between atoms: _263  and  _265
REMARK  107  A    between atoms: _265  and  _266
REMARK  108  A    between atoms: _265  and  _268
REMARK  109  A    between atoms: _268  and  _269
REMARK  110  A    between atoms: _272  and  _274
REMARK  111  A    between atoms: _274  and  _275
REMARK  112  A    between atoms: _278  and  _280
REMARK  113  A    between atoms: _280  and  _281
REMARK  114  A    between atoms: _280  and  _283
REMARK  115  A    between atoms: _286  and  _288
REMARK  116  A    between atoms: _288  and  _289
REMARK  117  A    between atoms: _288  and  _291
REMARK  118  A    between atoms: _291  and  _292
REMARK  119  A    between atoms: _294  and  _296
REMARK  120  A    between atoms: _296  and  _297
REMARK  121  A    between atoms: _296  and  _299
REMARK  122  A    between atoms: _299  and  _300
REMARK  123  A    between atoms: _305  and  _307
REMARK  124  A    between atoms: _307  and  _308
REMARK  125  A    between atoms: _307  and  _310
REMARK  126  A    between atoms: _310  and  _311
REMARK  127  A    between atoms: _311  and  _312
REMARK  128  A    between atoms: _312  and  _313
REMARK  129  A    between atoms: _322  and  _324
REMARK  130  A    between atoms: _324  and  _325
REMARK  131  A    between atoms: _324  and  _327
REMARK  132  A    between atoms: _327  and  _328
REMARK  133  A    between atoms: _331  and  _333
REMARK  134  A    between atoms: _333  and  _334
REMARK  135  A    between atoms: _336  and  _338
REMARK  136  A    between atoms: _338  and  _339
REMARK  137  A    between atoms: _338  and  _341
REMARK  138  A    between atoms: _341  and  _342
REMARK  139  A    between atoms: _345  and  _347
REMARK  140  A    between atoms: _347  and  _348
REMARK  141  A    between atoms: _347  and  _350
REMARK  142  A    between atoms: _350  and  _351
REMARK  143  A    between atoms: _354  and  _356
REMARK  144  A    between atoms: _356  and  _357
REMARK  145  A    between atoms: _360  and  _362
REMARK  146  A    between atoms: _362  and  _363
REMARK  147  A    between atoms: _362  and  _365
REMARK  148  A    between atoms: _365  and  _366
REMARK  149  A    between atoms: _369  and  _371
REMARK  150  A    between atoms: _371  and  _372
REMARK  151  A    between atoms: _371  and  _374
REMARK  152  A    between atoms: _374  and  _375
REMARK  153  A    between atoms: _380  and  _382
REMARK  154  A    between atoms: _382  and  _383
REMARK  155  A    between atoms: _382  and  _385
REMARK  156  A    between atoms: _385  and  _386
REMARK  157  A    between atoms: _386  and  _387
REMARK  158  A    between atoms: _387  and  _388
REMARK  159  A    between atoms: _397  and  _399
REMARK  160  A    between atoms: _399  and  _400
REMARK  161  A    between atoms: _399  and  _402
REMARK  162  A    between atoms: _402  and  _403
REMARK  163  A    between atoms: _408  and  _410
REMARK  164  A    between atoms: _410  and  _411
REMARK  165  A    between atoms: _410  and  _413
REMARK  166  A    between atoms: _413  and  _414
REMARK  167  A    between atoms: _414  and  _415
REMARK  168  A    between atoms: _415  and  _416
REMARK  169  A    between atoms: _426  and  _427
REMARK  170  A    between atoms: _432  and  _434
REMARK  171  A    between atoms: _434  and  _435
REMARK  172  A    between atoms: _434  and  _437
REMARK  173  A    between atoms: _437  and  _438
REMARK  174  A    between atoms: _440  and  _442
REMARK  175  A    between atoms: _442  and  _443
REMARK  176  A    between atoms: _442  and  _445
REMARK  177  A    between atoms: _445  and  _446
REMARK  178  A    between atoms: _449  and  _451
REMARK  179  A    between atoms: _451  and  _452
REMARK  180  A    between atoms: _451  and  _454
REMARK  181  A    between atoms: _454  and  _455
REMARK  182  A    between atoms: _455  and  _456
REMARK  183  A    between atoms: _459  and  _461
REMARK  184  A    between atoms: _461  and  _462
REMARK  185  A    between atoms: _461  and  _464
REMARK  186  A    between atoms: _464  and  _465
REMARK  187  A    between atoms: _465  and  _466
REMARK                            x       y       z     vdW  Elec       q    Type
REMARK                         _______ _______ _______ _____ _____    ______ ____
ROOT
ATOM      1  C   ALA A   3       1.591 -76.982-139.966  0.00  0.00    +0.241 C 
ATOM      2  N   GLY A   4       1.622 -78.178-139.383  0.00  0.00    -0.295 N 
ATOM      3  H   GLY A   4       2.385 -78.844-139.619  0.00  0.00    +0.150 HD
ATOM      4  O   ALA A   3       0.710 -76.151-139.752  0.00  0.00    -0.273 OA
ENDROOT
BRANCH   1   5
ATOM      5  CA  ALA A   3       2.722 -76.686-140.951  0.00  0.00    +0.149 C 
ATOM      6  CB  ALA A   3       4.035 -76.440-140.191  0.00  0.00    +0.031 C 
BRANCH   5   8
ATOM      7  C   THR A   2       2.944 -75.418-143.017  0.00  0.00    +0.243 C 
ATOM      8  N   ALA A   3       2.417 -75.538-141.803  0.00  0.00    -0.297 N 
ATOM      9  H   ALA A   3       1.774 -74.800-141.452  0.00  0.00    +0.150 HD
ATOM     10  O   THR A   2       3.714 -76.246-143.494  0.00  0.00    -0.273 OA
BRANCH   7  11
ATOM     11  CA  THR A   2       2.565 -74.181-143.820  0.00  0.00    +0.176 C 
BRANCH  11  14
ATOM     12  C   GLY A   1       4.242 -72.999-145.113  0.00  0.00    +0.240 C 
ATOM     13  O   GLY A   1       4.144 -72.002-144.402  0.00  0.00    -0.274 OA
ATOM     14  N   THR A   2       3.508 -74.086-144.924  0.00  0.00    -0.295 N 
ATOM     15  H   THR A   2       3.608 -74.888-145.578  0.00  0.00    +0.150 HD
BRANCH  12  16
ATOM     16  CA  GLY A   1       5.206 -73.045-146.282  0.00  0.00    +0.169 C 
BRANCH  16  17
ATOM     17  N   GLY A   1       6.274 -72.057-146.263  0.00  0.00    -0.236 NA
ATOM     18  H   GLY A   1       6.911 -71.994-145.443  0.00  0.00    +0.142 HD
ENDBRANCH  16  17
ENDBRANCH  12  16
ENDBRANCH  11  14
BRANCH  11  19
ATOM     19  CB  THR A   2       1.114 -74.314-144.329  0.00  0.00    +0.137 C 
ATOM     20  CG2 THR A   2       0.761 -73.144-145.238  0.00  0.00    +0.034 C 
BRANCH  19  21
ATOM     21  OG1 THR A   2       0.974 -75.526-145.073  0.00  0.00    -0.382 OA
ATOM     22  HG1 THR A   2       0.042 -75.607-145.397  0.00  0.00    +0.210 HD
ENDBRANCH  19  21
ENDBRANCH  11  19
ENDBRANCH   7  11
ENDBRANCH   5   8
ENDBRANCH   1   5
BRANCH   2  23
ATOM     23  CA  GLY A   4       0.606 -78.567-138.422  0.00  0.00    +0.176 C 
BRANCH  23  24
ATOM     24  C   GLY A   4       1.141 -78.507-137.006  0.00  0.00    +0.243 C 
ATOM     25  N   ALA A   5       0.490 -77.725-136.143  0.00  0.00    -0.297 N 
ATOM     26  H   ALA A   5      -0.350 -77.205-136.470  0.00  0.00    +0.150 HD
ATOM     27  O   GLY A   4       2.138 -79.162-136.703  0.00  0.00    -0.273 OA
BRANCH  25  28
ATOM     28  CA  ALA A   5       0.921 -77.574-134.745  0.00  0.00    +0.149 C 
ATOM     29  CB  ALA A   5       0.016 -76.586-134.031  0.00  0.00    +0.031 C 
BRANCH  28  30
ATOM     30  C   ALA A   5       0.963 -78.894-133.970  0.00  0.00    +0.241 C 
ATOM     31  N   ALA A   6       2.050 -79.105-133.233  0.00  0.00    -0.298 N 
ATOM     32  H   ALA A   6       2.792 -78.377-133.208  0.00  0.00    +0.150 HD
ATOM     33  O   ALA A   5       0.031 -79.699-134.031  0.00  0.00    -0.273 OA
BRANCH  31  34
ATOM     34  CA  ALA A   6       2.232 -80.330-132.458  0.00  0.00    +0.137 C 
ATOM     35  CB  ALA A   6       3.711 -80.601-132.246  0.00  0.00    +0.030 C 
BRANCH  34  36
ATOM     36  C   ALA A   6       1.524 -80.251-131.115  0.00  0.00    +0.227 C 
ATOM     37  O   ALA A   6       1.274 -81.271-130.478  0.00  0.00    -0.286 OA
ENDBRANCH  34  36
ENDBRANCH  31  34
ENDBRANCH  28  30
ENDBRANCH  25  28
ENDBRANCH  23  24
ENDBRANCH   2  23
TORSDOF 14
REMARK  Name = ../refined-set-2016/1odi/1odi_pocket.pdb
REMARK  187 active torsions:
REMARK  status: ('A' for Active; 'I' for Inactive)
REMARK    1  A    between atoms: _2  and  _3
REMARK    2  A    between atoms: _8  and  _10
REMARK    3  A    between atoms: _10  and  _11
REMARK    4  A    between atoms: _13  and  _15
REMARK    5  A    between atoms: _15  and  _16
REMARK    6  A    between atoms: _15  and  _18
REMARK    7  A    between atoms: _18  and  _19
REMARK    8  A    between atoms: _22  and  _24
REMARK    9  A    between atoms: _24  and  _25
REMARK   10  A    between atoms: _24  and  _27
REMARK   11  A    between atoms: _27  and  _28
REMARK   12  A    between atoms: _28  and  _29
REMARK   13  A    between atoms: _29  and  _30
REMARK   14  A    between atoms: _39  and  _41
REMARK   15  A    between atoms: _41  and  _42
REMARK   16  A    between atoms: _41  and  _44
REMARK   17  A    between atoms: _44  and  _45
REMARK   18  A    between atoms: _48  and  _50
REMARK   19  A    between atoms: _50  and  _51
REMARK   20  A    between atoms: _53  and  _55
REMARK   21  A    between atoms: _55  and  _56
REMARK   22  A    between atoms: _55  and  _58
REMARK   23  A    between atoms: _58  and  _59
REMARK   24  A    between atoms: _59  and  _60
REMARK   25  A    between atoms: _62  and  _64
REMARK   26  A    between atoms: _64  and  _65
REMARK   27  A    between atoms: _67  and  _69
REMARK   28  A    between atoms: _69  and  _70
REMARK   29  A    between atoms: _69  and  _72
REMARK   30  A    between atoms: _72  and  _73
REMARK   31  A    between atoms: _76  and  _78
REMARK   32  A    between atoms: _78  and  _79
REMARK   33  A    between atoms: _78  and  _81
REMARK   34  A    between atoms: _81  and  _82
REMARK   35  A    between atoms: _82  and  _83
REMARK   36  A    between atoms: _83  and  _84
REMARK   37  A    between atoms: _93  and  _95
REMARK   38  A    between atoms: _95  and  _96
REMARK   39  A    between atoms: _98  and  _100
REMARK   40  A    between atoms: _100  and  _101
REMARK   41  A    between atoms: _100  and  _103
REMARK   42  A    between atoms: _103  and  _104
REMARK   43  A    between atoms: _107  and  _109
REMARK   44  A    between atoms: _109  and  _110
REMARK   45  A    between atoms: _113  and  _115
REMARK   46  A    between atoms: _115  and  _116
REMARK   47  A    between atoms: _118  and  _120
REMARK   48  A    between atoms: _120  and  _121
REMARK   49  A    between atoms: _124  and  _126
REMARK   50  A    between atoms: _126  and  _127
REMARK   51  A    between atoms: _130  and  _132
REMARK   52  A    between atoms: _132  and  _133
REMARK   53  A    between atoms: _136  and  _138
REMARK   54  A    between atoms: _138  and  _139
REMARK   55  A    between atoms: _138  and  _141
REMARK   56  A    between atoms: _141  and  _142
REMARK   57  A    between atoms: _144  and  _146
REMARK   58  A    between atoms: _146  and  _147
REMARK   59  A    between atoms: _146  and  _149
REMARK   60  A    between atoms: _149  and  _150
REMARK   61  A    between atoms: _150  and  _151
REMARK   62  A    between atoms: _154  and  _156
REMARK   63  A    between atoms: _156  and  _157
REMARK   64  A    between atoms: _156  and  _159
REMARK   65  A    between atoms: _159  and  _160
REMARK   66  A    between atoms: _163  and  _165
REMARK   67  A    between atoms: _165  and  _166
REMARK   68  A    between atoms: _169  and  _171
REMARK   69  A    between atoms: _171  and  _172
REMARK   70  A    between atoms: _171  and  _174
REMARK   71  A    between atoms: _174  and  _175
REMARK   72  A    between atoms: _181  and  _183
REMARK   73  A    between atoms: _183  and  _184
REMARK   74  A    between atoms: _183  and  _186
REMARK   75  A    between atoms: _186  and  _187
REMARK   76  A    between atoms: _192  and  _193
REMARK   77  A    between atoms: _195  and  _197
REMARK   78  A    between atoms: _197  and  _198
REMARK   79  A    between atoms: _201  and  _203
REMARK   80  A    between atoms: _203  and  _204
REMARK   81  A    between atoms: _203  and  _206
REMARK   82  A    between atoms: _206  and  _207
REMARK   83  A    between atoms: _210  and  _212
REMARK   84  A    between atoms: _212  and  _213
REMARK   85  A    between atoms: _216  and  _218
REMARK   86  A    between atoms: _218  and  _219
REMARK   87  A    between atoms: _218  and  _221
REMARK   88  A    between atoms: _221  and  _222
REMARK   89  A    between atoms: _228  and  _230
REMARK   90  A    between atoms: _230  and  _231
REMARK   91  A    between atoms: _230  and  _233
REMARK   92  A    between atoms: _233  and  _234
REMARK   93  A    between atoms: _234  and  _235
REMARK   94  A    between atoms: _238  and  _240
REMARK   95  A    between atoms: _240  and  _241
REMARK   96  A    between atoms: _240  and  _243
REMARK   97  A    between atoms: _243  and  _244
REMARK   98  A    between atoms: _244  and  _245
REMARK   99  A    between atoms: _247  and  _249
REMARK  100  A    between atoms: _249  and  _250
REMARK  101  A    between atoms: _249  and  _252
REMARK  102  A    between atoms: _252  and  _253
REMARK  103  A    between atoms: _253  and  _254
REMARK  104  A    between atoms: _257  and  _259
REMARK  105  A    between atoms: _259  and  _260
REMARK  106  A    between atoms: _263  and  _265
REMARK  107  A    between atoms: _265  and  _266
REMARK  108  A    between atoms: _265  and  _268
REMARK  109  A    between atoms: _268  and  _269
REMARK  110  A    between atoms: _272  and  _274
REMARK  111  A    between atoms: _274  and  _275
REMARK  112  A    between atoms: _278  and  _280
REMARK  113  A    between atoms: _280  and  _281
REMARK  114  A    between atoms: _280  and  _283
REMARK  115  A    between atoms: _286  and  _288
REMARK  116  A    between atoms: _288  and  _289
REMARK  117  A    between atoms: _288  and  _291
REMARK  118  A    between atoms: _291  and  _292
REMARK  119  A    between atoms: _294  and  _296
REMARK  120  A    between atoms: _296  and  _297
REMARK  121  A    between atoms: _296  and  _299
REMARK  122  A    between atoms: _299  and  _300
REMARK  123  A    between atoms: _305  and  _307
REMARK  124  A    between atoms: _307  and  _308
REMARK  125  A    between atoms: _307  and  _310
REMARK  126  A    between atoms: _310  and  _311
REMARK  127  A    between atoms: _311  and  _312
REMARK  128  A    between atoms: _312  and  _313
REMARK  129  A    between atoms: _322  and  _324
REMARK  130  A    between atoms: _324  and  _325
REMARK  131  A    between atoms: _324  and  _327
REMARK  132  A    between atoms: _327  and  _328
REMARK  133  A    between atoms: _331  and  _333
REMARK  134  A    between atoms: _333  and  _334
REMARK  135  A    between atoms: _336  and  _338
REMARK  136  A    between atoms: _338  and  _339
REMARK  137  A    between atoms: _338  and  _341
REMARK  138  A    between atoms: _341  and  _342
REMARK  139  A    between atoms: _345  and  _347
REMARK  140  A    between atoms: _347  and  _348
REMARK  141  A    between atoms: _347  and  _350
REMARK  142  A    between atoms: _350  and  _351
REMARK  143  A    between atoms: _354  and  _356
REMARK  144  A    between atoms: _356  and  _357
REMARK  145  A    between atoms: _360  and  _362
REMARK  146  A    between atoms: _362  and  _363
REMARK  147  A    between atoms: _362  and  _365
REMARK  148  A    between atoms: _365  and  _366
REMARK  149  A    between atoms: _369  and  _371
REMARK  150  A    between atoms: _371  and  _372
REMARK  151  A    between atoms: _371  and  _374
REMARK  152  A    between atoms: _374  and  _375
REMARK  153  A    between atoms: _380  and  _382
REMARK  154  A    between atoms: _382  and  _383
REMARK  155  A    between atoms: _382  and  _385
REMARK  156  A    between atoms: _385  and  _386
REMARK  157  A    between atoms: _386  and  _387
REMARK  158  A    between atoms: _387  and  _388
REMARK  159  A    between atoms: _397  and  _399
REMARK  160  A    between atoms: _399  and  _400
REMARK  161  A    between atoms: _399  and  _402
REMARK  162  A    between atoms: _402  and  _403
REMARK  163  A    between atoms: _408  and  _410
REMARK  164  A    between atoms: _410  and  _411
REMARK  165  A    between atoms: _410  and  _413
REMARK  166  A    between atoms: _413  and  _414
REMARK  167  A    between atoms: _414  and  _415
REMARK  168  A    between atoms: _415  and  _416
REMARK  169  A    between atoms: _426  and  _427
REMARK  170  A    between atoms: _432  and  _434
REMARK  171  A    between atoms: _434  and  _435
REMARK  172  A    between atoms: _434  and  _437
REMARK  173  A    between atoms: _437  and  _438
REMARK  174  A    between atoms: _440  and  _442
REMARK  175  A    between atoms: _442  and  _443
REMARK  176  A    between atoms: _442  and  _445
REMARK  177  A    between atoms: _445  and  _446
REMARK  178  A    between atoms: _449  and  _451
REMARK  179  A    between atoms: _451  and  _452
REMARK  180  A    between atoms: _451  and  _454
REMARK  181  A    between atoms: _454  and  _455
REMARK  182  A    between atoms: _455  and  _456
REMARK  183  A    between atoms: _459  and  _461
REMARK  184  A    between atoms: _461  and  _462
REMARK  185  A    between atoms: _461  and  _464
REMARK  186  A    between atoms: _464  and  _465
REMARK  187  A    between atoms: _465  and  _466
REMARK                            x       y       z     vdW  Elec       q    Type
REMARK                         _______ _______ _______ _____ _____    ______ ____
ROOT
ATOM      1  C   ALA A   5       2.813 -88.804-143.224  0.00  0.00    +0.241 C 
ATOM      2  O   ALA A   5       2.693 -88.765-142.000  0.00  0.00    -0.273 OA
ATOM      3  N   PHE A   6       2.089 -88.058-144.050  0.00  0.00    -0.297 N 
ATOM      4  H   PHE A   6       2.217 -88.160-145.077  0.00  0.00    +0.150 HD
ENDROOT
BRANCH   1   5
ATOM      5  CA  ALA A   5       3.796 -89.758-143.878  0.00  0.00    +0.149 C 
ATOM      6  CB  ALA A   5       3.728 -91.119-143.194  0.00  0.00    +0.031 C 
BRANCH   5   8
ATOM      7  C   ASP A   4       5.716 -88.760-145.000  0.00  0.00    +0.241 C 
ATOM      8  N   ALA A   5       5.182 -89.297-143.905  0.00  0.00    -0.297 N 
ATOM      9  H   ALA A   5       5.765 -89.390-143.049  0.00  0.00    +0.150 HD
ATOM     10  O   ASP A   4       5.079 -88.575-146.033  0.00  0.00    -0.273 OA
BRANCH   7  11
ATOM     11  CA  ASP A   4       7.186 -88.378-144.921  0.00  0.00    +0.160 C 
BRANCH  11  13
ATOM     12  C   GLU A   3       7.733 -86.524-143.434  0.00  0.00    +0.241 C 
ATOM     13  N   ASP A   4       7.545 -87.826-143.620  0.00  0.00    -0.297 N 
ATOM     14  H   ASP A   4       7.657 -88.472-142.812  0.00  0.00    +0.150 HD
ATOM     15  O   GLU A   3       7.618 -85.696-144.335  0.00  0.00    -0.273 OA
BRANCH  12  16
ATOM     16  CA  GLU A   3       8.098 -86.099-142.008  0.00  0.00    +0.149 C 
BRANCH  16  19
ATOM     17  C   SER A   2       9.763 -84.371-141.546  0.00  0.00    +0.243 C 
ATOM     18  O   SER A   2      10.631 -85.195-141.267  0.00  0.00    -0.273 OA
ATOM     19  N   GLU A   3       8.528 -84.705-141.916  0.00  0.00    -0.297 N 
ATOM     20  H   GLU A   3       7.849 -83.951-142.146  0.00  0.00    +0.150 HD
BRANCH  17  21
ATOM     21  CA  SER A   2      10.065 -82.886-141.472  0.00  0.00    +0.178 C 
BRANCH  21  24
ATOM     22  C   ALA A   1       9.382 -82.105-139.272  0.00  0.00    +0.238 C 
ATOM     23  O   ALA A   1       8.222 -81.922-139.638  0.00  0.00    -0.274 OA
ATOM     24  N   SER A   2      10.338 -82.548-140.081  0.00  0.00    -0.295 N 
ATOM     25  H   SER A   2      11.305 -82.656-139.713  0.00  0.00    +0.150 HD
BRANCH  22  26
ATOM     26  CA  ALA A   1       9.805 -81.798-137.845  0.00  0.00    +0.145 C 
ATOM     27  CB  ALA A   1       9.170 -82.778-136.868  0.00  0.00    +0.028 C 
BRANCH  26  28
ATOM     28  N   ALA A   1       9.403 -80.447-137.518  0.00  0.00    -0.238 NA
ATOM     29  H   ALA A   1       8.410 -80.161-137.632  0.00  0.00    +0.142 HD
ENDBRANCH  26  28
ENDBRANCH  22  26
ENDBRANCH  21  24
BRANCH  21  30
ATOM     30  CB  SER A   2      11.274 -82.553-142.351  0.00  0.00    +0.166 C 
BRANCH  30  31
ATOM     31  OG  SER A   2      11.525 -81.156-142.377  0.00  0.00    -0.380 OA
ATOM     32  H   SER A   2      10.733 -80.686-142.740  0.00  0.00    +0.211 HD
ENDBRANCH  30  31
ENDBRANCH  21  30
ENDBRANCH  17  21
ENDBRANCH  16  19
BRANCH  16  33
ATOM     33  CB  GLU A   3       6.896 -86.329-141.097  0.00  0.00    +0.041 C 
BRANCH  33  34
ATOM     34  CG  GLU A   3       5.689 -85.485-141.463  0.00  0.00    +0.116 C 
BRANCH  34  35
ATOM     35  CD  GLU A   3       4.451 -85.873-140.677  0.00  0.00    +0.365 C 
ATOM     36  OE2 GLU A   3       4.533 -86.826-139.878  0.00  0.00    -0.246 OA
ATOM     37  OE1 GLU A   3       3.397 -85.231-140.854  0.00  0.00    -0.246 OA
ENDBRANCH  34  35
ENDBRANCH  33  34
ENDBRANCH  16  33
ENDBRANCH  12  16
ENDBRANCH  11  13
BRANCH  11  38
ATOM     38  CB  ASP A   4       8.018 -89.628-145.226  0.00  0.00    +0.143 C 
BRANCH  38  39
ATOM     39  CG  ASP A   4       9.392 -89.305-145.768  0.00  0.00    +0.367 C 
ATOM     40  OD2 ASP A   4      10.218 -90.237-145.845  0.00  0.00    -0.246 OA
ATOM     41  OD1 ASP A   4       9.649 -88.133-146.124  0.00  0.00    -0.246 OA
ENDBRANCH  38  39
ENDBRANCH  11  38
ENDBRANCH   7  11
ENDBRANCH   5   8
ENDBRANCH   1   5
BRANCH   3  42
ATOM     42  CA  PHE A   6       1.119 -87.101-143.541  0.00  0.00    +0.153 C 
BRANCH  42  43
ATOM     43  C   PHE A   6       0.080 -87.784-142.663  0.00  0.00    +0.241 C 
ATOM     44  O   PHE A   6      -0.202 -87.316-141.559  0.00  0.00    -0.273 OA
ATOM     45  N   TYR A   7      -0.473 -88.894-143.150  0.00  0.00    -0.297 N 
ATOM     46  H   TYR A   7      -0.155 -89.258-144.071  0.00  0.00    +0.150 HD
BRANCH  45  47
ATOM     47  CA  TYR A   7      -1.517 -89.613-142.421  0.00  0.00    +0.153 C 
BRANCH  47  48
ATOM     48  C   TYR A   7      -1.105 -90.697-141.422  0.00  0.00    +0.241 C 
ATOM     49  O   TYR A   7      -1.949 -91.474-140.973  0.00  0.00    -0.273 OA
ATOM     50  N   ALA A   8       0.175 -90.760-141.067  0.00  0.00    -0.297 N 
ATOM     51  H   ALA A   8       0.862 -90.098-141.481  0.00  0.00    +0.150 HD
BRANCH  50  52
ATOM     52  CA  ALA A   8       0.616 -91.756-140.098  0.00  0.00    +0.149 C 
ATOM     53  CB  ALA A   8       2.029 -92.244-140.422  0.00  0.00    +0.031 C 
BRANCH  52  54
ATOM     54  C   ALA A   8       0.577 -91.120-138.711  0.00  0.00    +0.241 C 
ATOM     55  O   ALA A   8      -0.091 -91.630-137.799  0.00  0.00    -0.273 OA
ATOM     56  N   THR A   9       1.272 -89.991-138.573  0.00  0.00    -0.296 N 
ATOM     57  H   THR A   9       1.784 -89.615-139.396  0.00  0.00    +0.150 HD
BRANCH  56  58
ATOM     58  CA  THR A   9       1.342 -89.261-137.308  0.00  0.00    +0.164 C 
BRANCH  58  59
ATOM     59  CB  THR A   9       2.053 -87.916-137.474  0.00  0.00    +0.136 C 
ATOM     60  CG2 THR A   9       2.255 -87.257-136.114  0.00  0.00    +0.034 C 
BRANCH  59  61
ATOM     61  OG1 THR A   9       3.323 -88.120-138.100  0.00  0.00    -0.382 OA
ATOM     62  HG1 THR A   9       3.781 -87.249-138.206  0.00  0.00    +0.210 HD
ENDBRANCH  59  61
ENDBRANCH  58  59
BRANCH  58  63
ATOM     63  C   THR A   9      -0.021 -88.969-136.700  0.00  0.00    +0.229 C 
ATOM     64  O   THR A   9      -0.878 -88.354-137.337  0.00  0.00    -0.286 OA
ENDBRANCH  58  63
ENDBRANCH  56  58
ENDBRANCH  52  54
ENDBRANCH  50  52
ENDBRANCH  47  48
BRANCH  47  65
ATOM     65  CB  TYR A   7      -2.534 -90.198-143.413  0.00  0.00    +0.055 C 
BRANCH  65  66
ATOM     66  CG  TYR A   7      -3.362 -89.142-144.120  0.00  0.00    -0.020 A 
ATOM     67  CD2 TYR A   7      -4.456 -88.545-143.484  0.00  0.00    -0.001 A 
ATOM     68  CE2 TYR A   7      -5.188 -87.532-144.102  0.00  0.00    +0.036 A 
ATOM     69  CZ  TYR A   7      -4.833 -87.107-145.372  0.00  0.00    +0.134 A 
ATOM     70  CE1 TYR A   7      -3.755 -87.685-146.033  0.00  0.00    +0.036 A 
ATOM     71  CD1 TYR A   7      -3.024 -88.700-145.401  0.00  0.00    -0.001 A 
BRANCH  69  72
ATOM     72  OH  TYR A   7      -5.540 -86.097-145.976  0.00  0.00    -0.506 OA
ATOM     73  HH  TYR A   7      -5.158 -85.918-146.872  0.00  0.00    +0.292 HD
ENDBRANCH  69  72
ENDBRANCH  65  66
ENDBRANCH  47  65
ENDBRANCH  45  47
ENDBRANCH  42  43
BRANCH  42  74
ATOM     74  CB  PHE A   6       0.407 -86.398-144.696  0.00  0.00    +0.055 C 
BRANCH  74  75
ATOM     75  CG  PHE A   6      -0.501 -85.275-144.263  0.00  0.00    -0.020 A 
ATOM     76  CD2 PHE A   6      -1.841 -85.520-143.946  0.00  0.00    -0.004 A 
ATOM     77  CE2 PHE A   6      -2.687 -84.476-143.548  0.00  0.00    -0.000 A 
ATOM     78  CZ  PHE A   6      -2.191 -83.174-143.466  0.00  0.00    -0.000 A 
ATOM     79  CE1 PHE A   6      -0.858 -82.920-143.780  0.00  0.00    -0.000 A 
ATOM     80  CD1 PHE A   6      -0.020 -83.969-144.174  0.00  0.00    -0.004 A 
ENDBRANCH  74  75
ENDBRANCH  42  74
ENDBRANCH   3  42
TORSDOF 32
REMARK  Name = ../refined-set-2016/1odi/1odi_pocket.pdb
REMARK  187 active torsions:
REMARK  status: ('A' for Active; 'I' for Inactive)
REMARK    1  A    between atoms: _2  and  _3
REMARK    2  A    between atoms: _8  and  _10
REMARK    3  A    between atoms: _10  and  _11
REMARK    4  A    between atoms: _13  and  _15
REMARK    5  A    between atoms: _15  and  _16
REMARK    6  A    between atoms: _15  and  _18
REMARK    7  A    between atoms: _18  and  _19
REMARK    8  A    between atoms: _22  and  _24
REMARK    9  A    between atoms: _24  and  _25
REMARK   10  A    between atoms: _24  and  _27
REMARK   11  A    between atoms: _27  and  _28
REMARK   12  A    between atoms: _28  and  _29
REMARK   13  A    between atoms: _29  and  _30
REMARK   14  A    between atoms: _39  and  _41
REMARK   15  A    between atoms: _41  and  _42
REMARK   16  A    between atoms: _41  and  _44
REMARK   17  A    between atoms: _44  and  _45
REMARK   18  A    between atoms: _48  and  _50
REMARK   19  A    between atoms: _50  and  _51
REMARK   20  A    between atoms: _53  and  _55
REMARK   21  A    between atoms: _55  and  _56
REMARK   22  A    between atoms: _55  and  _58
REMARK   23  A    between atoms: _58  and  _59
REMARK   24  A    between atoms: _59  and  _60
REMARK   25  A    between atoms: _62  and  _64
REMARK   26  A    between atoms: _64  and  _65
REMARK   27  A    between atoms: _67  and  _69
REMARK   28  A    between atoms: _69  and  _70
REMARK   29  A    between atoms: _69  and  _72
REMARK   30  A    between atoms: _72  and  _73
REMARK   31  A    between atoms: _76  and  _78
REMARK   32  A    between atoms: _78  and  _79
REMARK   33  A    between atoms: _78  and  _81
REMARK   34  A    between atoms: _81  and  _82
REMARK   35  A    between atoms: _82  and  _83
REMARK   36  A    between atoms: _83  and  _84
REMARK   37  A    between atoms: _93  and  _95
REMARK   38  A    between atoms: _95  and  _96
REMARK   39  A    between atoms: _98  and  _100
REMARK   40  A    between atoms: _100  and  _101
REMARK   41  A    between atoms: _100  and  _103
REMARK   42  A    between atoms: _103  and  _104
REMARK   43  A    between atoms: _107  and  _109
REMARK   44  A    between atoms: _109  and  _110
REMARK   45  A    between atoms: _113  and  _115
REMARK   46  A    between atoms: _115  and  _116
REMARK   47  A    between atoms: _118  and  _120
REMARK   48  A    between atoms: _120  and  _121
REMARK   49  A    between atoms: _124  and  _126
REMARK   50  A    between atoms: _126  and  _127
REMARK   51  A    between atoms: _130  and  _132
REMARK   52  A    between atoms: _132  and  _133
REMARK   53  A    between atoms: _136  and  _138
REMARK   54  A    between atoms: _138  and  _139
REMARK   55  A    between atoms: _138  and  _141
REMARK   56  A    between atoms: _141  and  _142
REMARK   57  A    between atoms: _144  and  _146
REMARK   58  A    between atoms: _146  and  _147
REMARK   59  A    between atoms: _146  and  _149
REMARK   60  A    between atoms: _149  and  _150
REMARK   61  A    between atoms: _150  and  _151
REMARK   62  A    between atoms: _154  and  _156
REMARK   63  A    between atoms: _156  and  _157
REMARK   64  A    between atoms: _156  and  _159
REMARK   65  A    between atoms: _159  and  _160
REMARK   66  A    between atoms: _163  and  _165
REMARK   67  A    between atoms: _165  and  _166
REMARK   68  A    between atoms: _169  and  _171
REMARK   69  A    between atoms: _171  and  _172
REMARK   70  A    between atoms: _171  and  _174
REMARK   71  A    between atoms: _174  and  _175
REMARK   72  A    between atoms: _181  and  _183
REMARK   73  A    between atoms: _183  and  _184
REMARK   74  A    between atoms: _183  and  _186
REMARK   75  A    between atoms: _186  and  _187
REMARK   76  A    between atoms: _192  and  _193
REMARK   77  A    between atoms: _195  and  _197
REMARK   78  A    between atoms: _197  and  _198
REMARK   79  A    between atoms: _201  and  _203
REMARK   80  A    between atoms: _203  and  _204
REMARK   81  A    between atoms: _203  and  _206
REMARK   82  A    between atoms: _206  and  _207
REMARK   83  A    between atoms: _210  and  _212
REMARK   84  A    between atoms: _212  and  _213
REMARK   85  A    between atoms: _216  and  _218
REMARK   86  A    between atoms: _218  and  _219
REMARK   87  A    between atoms: _218  and  _221
REMARK   88  A    between atoms: _221  and  _222
REMARK   89  A    between atoms: _228  and  _230
REMARK   90  A    between atoms: _230  and  _231
REMARK   91  A    between atoms: _230  and  _233
REMARK   92  A    between atoms: _233  and  _234
REMARK   93  A    between atoms: _234  and  _235
REMARK   94  A    between atoms: _238  and  _240
REMARK   95  A    between atoms: _240  and  _241
REMARK   96  A    between atoms: _240  and  _243
REMARK   97  A    between atoms: _243  and  _244
REMARK   98  A    between atoms: _244  and  _245
REMARK   99  A    between atoms: _247  and  _249
REMARK  100  A    between atoms: _249  and  _250
REMARK  101  A    between atoms: _249  and  _252
REMARK  102  A    between atoms: _252  and  _253
REMARK  103  A    between atoms: _253  and  _254
REMARK  104  A    between atoms: _257  and  _259
REMARK  105  A    between atoms: _259  and  _260
REMARK  106  A    between atoms: _263  and  _265
REMARK  107  A    between atoms: _265  and  _266
REMARK  108  A    between atoms: _265  and  _268
REMARK  109  A    between atoms: _268  and  _269
REMARK  110  A    between atoms: _272  and  _274
REMARK  111  A    between atoms: _274  and  _275
REMARK  112  A    between atoms: _278  and  _280
REMARK  113  A    between atoms: _280  and  _281
REMARK  114  A    between atoms: _280  and  _283
REMARK  115  A    between atoms: _286  and  _288
REMARK  116  A    between atoms: _288  and  _289
REMARK  117  A    between atoms: _288  and  _291
REMARK  118  A    between atoms: _291  and  _292
REMARK  119  A    between atoms: _294  and  _296
REMARK  120  A    between atoms: _296  and  _297
REMARK  121  A    between atoms: _296  and  _299
REMARK  122  A    between atoms: _299  and  _300
REMARK  123  A    between atoms: _305  and  _307
REMARK  124  A    between atoms: _307  and  _308
REMARK  125  A    between atoms: _307  and  _310
REMARK  126  A    between atoms: _310  and  _311
REMARK  127  A    between atoms: _311  and  _312
REMARK  128  A    between atoms: _312  and  _313
REMARK  129  A    between atoms: _322  and  _324
REMARK  130  A    between atoms: _324  and  _325
REMARK  131  A    between atoms: _324  and  _327
REMARK  132  A    between atoms: _327  and  _328
REMARK  133  A    between atoms: _331  and  _333
REMARK  134  A    between atoms: _333  and  _334
REMARK  135  A    between atoms: _336  and  _338
REMARK  136  A    between atoms: _338  and  _339
REMARK  137  A    between atoms: _338  and  _341
REMARK  138  A    between atoms: _341  and  _342
REMARK  139  A    between atoms: _345  and  _347
REMARK  140  A    between atoms: _347  and  _348
REMARK  141  A    between atoms: _347  and  _350
REMARK  142  A    between atoms: _350  and  _351
REMARK  143  A    between atoms: _354  and  _356
REMARK  144  A    between atoms: _356  and  _357
REMARK  145  A    between atoms: _360  and  _362
REMARK  146  A    between atoms: _362  and  _363
REMARK  147  A    between atoms: _362  and  _365
REMARK  148  A    between atoms: _365  and  _366
REMARK  149  A    between atoms: _369  and  _371
REMARK  150  A    between atoms: _371  and  _372
REMARK  151  A    between atoms: _371  and  _374
REMARK  152  A    between atoms: _374  and  _375
REMARK  153  A    between atoms: _380  and  _382
REMARK  154  A    between atoms: _382  and  _383
REMARK  155  A    between atoms: _382  and  _385
REMARK  156  A    between atoms: _385  and  _386
REMARK  157  A    between atoms: _386  and  _387
REMARK  158  A    between atoms: _387  and  _388
REMARK  159  A    between atoms: _397  and  _399
REMARK  160  A    between atoms: _399  and  _400
REMARK  161  A    between atoms: _399  and  _402
REMARK  162  A    between atoms: _402  and  _403
REMARK  163  A    between atoms: _408  and  _410
REMARK  164  A    between atoms: _410  and  _411
REMARK  165  A    between atoms: _410  and  _413
REMARK  166  A    between atoms: _413  and  _414
REMARK  167  A    between atoms: _414  and  _415
REMARK  168  A    between atoms: _415  and  _416
REMARK  169  A    between atoms: _426  and  _427
REMARK  170  A    between atoms: _432  and  _434
REMARK  171  A    between atoms: _434  and  _435
REMARK  172  A    between atoms: _434  and  _437
REMARK  173  A    between atoms: _437  and  _438
REMARK  174  A    between atoms: _440  and  _442
REMARK  175  A    between atoms: _442  and  _443
REMARK  176  A    between atoms: _442  and  _445
REMARK  177  A    between atoms: _445  and  _446
REMARK  178  A    between atoms: _449  and  _451
REMARK  179  A    between atoms: _451  and  _452
REMARK  180  A    between atoms: _451  and  _454
REMARK  181  A    between atoms: _454  and  _455
REMARK  182  A    between atoms: _455  and  _456
REMARK  183  A    between atoms: _459  and  _461
REMARK  184  A    between atoms: _461  and  _462
REMARK  185  A    between atoms: _461  and  _464
REMARK  186  A    between atoms: _464  and  _465
REMARK  187  A    between atoms: _465  and  _466
REMARK                            x       y       z     vdW  Elec       q    Type
REMARK                         _______ _______ _______ _____ _____    ______ ____
ROOT
ATOM      1  C   GLU A   3       6.641 -81.174-142.952  0.00  0.00    +0.241 C 
ATOM      2  O   GLU A   3       7.165 -82.135-142.381  0.00  0.00    -0.273 OA
ATOM      3  N   MET A   4       6.734 -80.990-144.267  0.00  0.00    -0.297 N 
ATOM      4  H   MET A   4       6.337 -80.132-144.700  0.00  0.00    +0.150 HD
ENDROOT
BRANCH   3   5
ATOM      5  CA  MET A   4       7.392 -81.991-145.103  0.00  0.00    +0.149 C 
BRANCH   5   6
ATOM      6  C   MET A   4       8.458 -81.558-146.106  0.00  0.00    +0.241 C 
ATOM      7  N   GLU A   5       9.255 -80.543-145.792  0.00  0.00    -0.297 N 
ATOM      8  H   GLU A   5       9.147 -80.044-144.886  0.00  0.00    +0.150 HD
ATOM      9  O   MET A   4       8.556 -82.154-147.179  0.00  0.00    -0.273 OA
BRANCH   7  10
ATOM     10  CA  GLU A   5      10.283 -80.143-146.742  0.00  0.00    +0.149 C 
BRANCH  10  11
ATOM     11  C   GLU A   5      11.565 -79.587-146.136  0.00  0.00    +0.241 C 
ATOM     12  N   ALA A   6      11.452 -78.937-144.983  0.00  0.00    -0.298 N 
ATOM     13  H   ALA A   6      10.521 -78.889-144.521  0.00  0.00    +0.150 HD
ATOM     14  O   GLU A   5      12.644 -79.767-146.700  0.00  0.00    -0.273 OA
BRANCH  12  15
ATOM     15  CA  ALA A   6      12.595 -78.287-144.343  0.00  0.00    +0.137 C 
ATOM     16  CB  ALA A   6      12.166 -77.696-142.996  0.00  0.00    +0.030 C 
BRANCH  15  17
ATOM     17  C   ALA A   6      13.905 -79.061-144.187  0.00  0.00    +0.227 C 
ATOM     18  O   ALA A   6      14.939 -78.629-144.704  0.00  0.00    -0.286 OA
ENDBRANCH  15  17
ENDBRANCH  12  15
ENDBRANCH  10  11
BRANCH  10  19
ATOM     19  CB  GLU A   5       9.726 -79.117-147.742  0.00  0.00    +0.041 C 
BRANCH  19  20
ATOM     20  CG  GLU A   5       8.715 -79.666-148.733  0.00  0.00    +0.116 C 
BRANCH  20  21
ATOM     21  CD  GLU A   5       7.288 -79.541-148.239  0.00  0.00    +0.365 C 
ATOM     22  OE2 GLU A   5       7.050 -78.665-147.384  0.00  0.00    -0.246 OA
ATOM     23  OE1 GLU A   5       6.407 -80.306-148.711  0.00  0.00    -0.246 OA
ENDBRANCH  20  21
ENDBRANCH  19  20
ENDBRANCH  10  19
ENDBRANCH   7  10
ENDBRANCH   5   6
BRANCH   5  24
ATOM     24  CB  MET A   4       6.317 -82.773-145.867  0.00  0.00    +0.041 C 
BRANCH  24  25
ATOM     25  CG  MET A   4       5.254 -83.421-144.986  0.00  0.00    +0.060 C 
BRANCH  25  26
ATOM     26  SD  MET A   4       3.845 -84.066-145.938  0.00  0.00    -0.139 S 
ATOM     27  CE  MET A   4       4.605 -85.469-146.775  0.00  0.00    +0.069 C 
ENDBRANCH  25  26
ENDBRANCH  24  25
ENDBRANCH   5  24
ENDBRANCH   3   5
BRANCH   1  28
ATOM     28  CA  GLU A   3       5.849 -80.145-142.134  0.00  0.00    +0.149 C 
BRANCH  28  31
ATOM     29  C   PHE A   2       4.943 -80.385-139.890  0.00  0.00    +0.241 C 
ATOM     30  O   PHE A   2       3.887 -79.817-140.168  0.00  0.00    -0.273 OA
ATOM     31  N   GLU A   3       5.939 -80.560-140.750  0.00  0.00    -0.297 N 
ATOM     32  H   GLU A   3       6.815 -81.011-140.418  0.00  0.00    +0.150 HD
BRANCH  29  33
ATOM     33  CA  PHE A   2       5.189 -80.924-138.505  0.00  0.00    +0.153 C 
BRANCH  33  36
ATOM     34  C   ALA A   1       5.633 -79.301-136.769  0.00  0.00    +0.238 C 
ATOM     35  O   ALA A   1       6.855 -79.445-136.869  0.00  0.00    -0.274 OA
ATOM     36  N   PHE A   2       4.758 -79.967-137.513  0.00  0.00    -0.297 N 
ATOM     37  H   PHE A   2       3.741 -79.796-137.379  0.00  0.00    +0.150 HD
BRANCH  34  38
ATOM     38  CA  ALA A   1       5.031 -78.324-135.768  0.00  0.00    +0.145 C 
ATOM     39  CB  ALA A   1       4.503 -77.087-136.500  0.00  0.00    +0.028 C 
BRANCH  38  40
ATOM     40  N   ALA A   1       5.978 -77.923-134.734  0.00  0.00    -0.238 NA
ATOM     41  H   ALA A   1       6.998 -78.062-134.882  0.00  0.00    +0.142 HD
ENDBRANCH  38  40
ENDBRANCH  34  38
ENDBRANCH  33  36
BRANCH  33  42
ATOM     42  CB  PHE A   2       4.445 -82.256-138.353  0.00  0.00    +0.055 C 
BRANCH  42  43
ATOM     43  CG  PHE A   2       4.853 -83.043-137.148  0.00  0.00    -0.020 A 
ATOM     44  CD2 PHE A   2       4.453 -82.648-135.874  0.00  0.00    -0.004 A 
ATOM     45  CE2 PHE A   2       4.879 -83.346-134.741  0.00  0.00    -0.000 A 
ATOM     46  CZ  PHE A   2       5.712 -84.450-134.881  0.00  0.00    -0.000 A 
ATOM     47  CE1 PHE A   2       6.115 -84.856-136.154  0.00  0.00    -0.000 A 
ATOM     48  CD1 PHE A   2       5.683 -84.152-137.279  0.00  0.00    -0.004 A 
ENDBRANCH  42  43
ENDBRANCH  33  42
ENDBRANCH  29  33
ENDBRANCH  28  31
BRANCH  28  49
ATOM     49  CB  GLU A   3       6.355 -78.707-142.296  0.00  0.00    +0.041 C 
BRANCH  49  50
ATOM     50  CG  GLU A   3       7.703 -78.428-141.710  0.00  0.00    +0.116 C 
BRANCH  50  51
ATOM     51  CD  GLU A   3       8.780 -78.502-142.749  0.00  0.00    +0.365 C 
ATOM     52  OE2 GLU A   3       9.498 -79.519-142.789  0.00  0.00    -0.246 OA
ATOM     53  OE1 GLU A   3       8.893 -77.540-143.536  0.00  0.00    -0.246 OA
ENDBRANCH  50  51
ENDBRANCH  49  50
ENDBRANCH  28  49
ENDBRANCH   1  28
TORSDOF 23
REMARK  Name = ../refined-set-2016/1odi/1odi_pocket.pdb
REMARK  187 active torsions:
REMARK  status: ('A' for Active; 'I' for Inactive)
REMARK    1  A    between atoms: _2  and  _3
REMARK    2  A    between atoms: _8  and  _10
REMARK    3  A    between atoms: _10  and  _11
REMARK    4  A    between atoms: _13  and  _15
REMARK    5  A    between atoms: _15  and  _16
REMARK    6  A    between atoms: _15  and  _18
REMARK    7  A    between atoms: _18  and  _19
REMARK    8  A    between atoms: _22  and  _24
REMARK    9  A    between atoms: _24  and  _25
REMARK   10  A    between atoms: _24  and  _27
REMARK   11  A    between atoms: _27  and  _28
REMARK   12  A    between atoms: _28  and  _29
REMARK   13  A    between atoms: _29  and  _30
REMARK   14  A    between atoms: _39  and  _41
REMARK   15  A    between atoms: _41  and  _42
REMARK   16  A    between atoms: _41  and  _44
REMARK   17  A    between atoms: _44  and  _45
REMARK   18  A    between atoms: _48  and  _50
REMARK   19  A    between atoms: _50  and  _51
REMARK   20  A    between atoms: _53  and  _55
REMARK   21  A    between atoms: _55  and  _56
REMARK   22  A    between atoms: _55  and  _58
REMARK   23  A    between atoms: _58  and  _59
REMARK   24  A    between atoms: _59  and  _60
REMARK   25  A    between atoms: _62  and  _64
REMARK   26  A    between atoms: _64  and  _65
REMARK   27  A    between atoms: _67  and  _69
REMARK   28  A    between atoms: _69  and  _70
REMARK   29  A    between atoms: _69  and  _72
REMARK   30  A    between atoms: _72  and  _73
REMARK   31  A    between atoms: _76  and  _78
REMARK   32  A    between atoms: _78  and  _79
REMARK   33  A    between atoms: _78  and  _81
REMARK   34  A    between atoms: _81  and  _82
REMARK   35  A    between atoms: _82  and  _83
REMARK   36  A    between atoms: _83  and  _84
REMARK   37  A    between atoms: _93  and  _95
REMARK   38  A    between atoms: _95  and  _96
REMARK   39  A    between atoms: _98  and  _100
REMARK   40  A    between atoms: _100  and  _101
REMARK   41  A    between atoms: _100  and  _103
REMARK   42  A    between atoms: _103  and  _104
REMARK   43  A    between atoms: _107  and  _109
REMARK   44  A    between atoms: _109  and  _110
REMARK   45  A    between atoms: _113  and  _115
REMARK   46  A    between atoms: _115  and  _116
REMARK   47  A    between atoms: _118  and  _120
REMARK   48  A    between atoms: _120  and  _121
REMARK   49  A    between atoms: _124  and  _126
REMARK   50  A    between atoms: _126  and  _127
REMARK   51  A    between atoms: _130  and  _132
REMARK   52  A    between atoms: _132  and  _133
REMARK   53  A    between atoms: _136  and  _138
REMARK   54  A    between atoms: _138  and  _139
REMARK   55  A    between atoms: _138  and  _141
REMARK   56  A    between atoms: _141  and  _142
REMARK   57  A    between atoms: _144  and  _146
REMARK   58  A    between atoms: _146  and  _147
REMARK   59  A    between atoms: _146  and  _149
REMARK   60  A    between atoms: _149  and  _150
REMARK   61  A    between atoms: _150  and  _151
REMARK   62  A    between atoms: _154  and  _156
REMARK   63  A    between atoms: _156  and  _157
REMARK   64  A    between atoms: _156  and  _159
REMARK   65  A    between atoms: _159  and  _160
REMARK   66  A    between atoms: _163  and  _165
REMARK   67  A    between atoms: _165  and  _166
REMARK   68  A    between atoms: _169  and  _171
REMARK   69  A    between atoms: _171  and  _172
REMARK   70  A    between atoms: _171  and  _174
REMARK   71  A    between atoms: _174  and  _175
REMARK   72  A    between atoms: _181  and  _183
REMARK   73  A    between atoms: _183  and  _184
REMARK   74  A    between atoms: _183  and  _186
REMARK   75  A    between atoms: _186  and  _187
REMARK   76  A    between atoms: _192  and  _193
REMARK   77  A    between atoms: _195  and  _197
REMARK   78  A    between atoms: _197  and  _198
REMARK   79  A    between atoms: _201  and  _203
REMARK   80  A    between atoms: _203  and  _204
REMARK   81  A    between atoms: _203  and  _206
REMARK   82  A    between atoms: _206  and  _207
REMARK   83  A    between atoms: _210  and  _212
REMARK   84  A    between atoms: _212  and  _213
REMARK   85  A    between atoms: _216  and  _218
REMARK   86  A    between atoms: _218  and  _219
REMARK   87  A    between atoms: _218  and  _221
REMARK   88  A    between atoms: _221  and  _222
REMARK   89  A    between atoms: _228  and  _230
REMARK   90  A    between atoms: _230  and  _231
REMARK   91  A    between atoms: _230  and  _233
REMARK   92  A    between atoms: _233  and  _234
REMARK   93  A    between atoms: _234  and  _235
REMARK   94  A    between atoms: _238  and  _240
REMARK   95  A    between atoms: _240  and  _241
REMARK   96  A    between atoms: _240  and  _243
REMARK   97  A    between atoms: _243  and  _244
REMARK   98  A    between atoms: _244  and  _245
REMARK   99  A    between atoms: _247  and  _249
REMARK  100  A    between atoms: _249  and  _250
REMARK  101  A    between atoms: _249  and  _252
REMARK  102  A    between atoms: _252  and  _253
REMARK  103  A    between atoms: _253  and  _254
REMARK  104  A    between atoms: _257  and  _259
REMARK  105  A    between atoms: _259  and  _260
REMARK  106  A    between atoms: _263  and  _265
REMARK  107  A    between atoms: _265  and  _266
REMARK  108  A    between atoms: _265  and  _268
REMARK  109  A    between atoms: _268  and  _269
REMARK  110  A    between atoms: _272  and  _274
REMARK  111  A    between atoms: _274  and  _275
REMARK  112  A    between atoms: _278  and  _280
REMARK  113  A    between atoms: _280  and  _281
REMARK  114  A    between atoms: _280  and  _283
REMARK  115  A    between atoms: _286  and  _288
REMARK  116  A    between atoms: _288  and  _289
REMARK  117  A    between atoms: _288  and  _291
REMARK  118  A    between atoms: _291  and  _292
REMARK  119  A    between atoms: _294  and  _296
REMARK  120  A    between atoms: _296  and  _297
REMARK  121  A    between atoms: _296  and  _299
REMARK  122  A    between atoms: _299  and  _300
REMARK  123  A    between atoms: _305  and  _307
REMARK  124  A    between atoms: _307  and  _308
REMARK  125  A    between atoms: _307  and  _310
REMARK  126  A    between atoms: _310  and  _311
REMARK  127  A    between atoms: _311  and  _312
REMARK  128  A    between atoms: _312  and  _313
REMARK  129  A    between atoms: _322  and  _324
REMARK  130  A    between atoms: _324  and  _325
REMARK  131  A    between atoms: _324  and  _327
REMARK  132  A    between atoms: _327  and  _328
REMARK  133  A    between atoms: _331  and  _333
REMARK  134  A    between atoms: _333  and  _334
REMARK  135  A    between atoms: _336  and  _338
REMARK  136  A    between atoms: _338  and  _339
REMARK  137  A    between atoms: _338  and  _341
REMARK  138  A    between atoms: _341  and  _342
REMARK  139  A    between atoms: _345  and  _347
REMARK  140  A    between atoms: _347  and  _348
REMARK  141  A    between atoms: _347  and  _350
REMARK  142  A    between atoms: _350  and  _351
REMARK  143  A    between atoms: _354  and  _356
REMARK  144  A    between atoms: _356  and  _357
REMARK  145  A    between atoms: _360  and  _362
REMARK  146  A    between atoms: _362  and  _363
REMARK  147  A    between atoms: _362  and  _365
REMARK  148  A    between atoms: _365  and  _366
REMARK  149  A    between atoms: _369  and  _371
REMARK  150  A    between atoms: _371  and  _372
REMARK  151  A    between atoms: _371  and  _374
REMARK  152  A    between atoms: _374  and  _375
REMARK  153  A    between atoms: _380  and  _382
REMARK  154  A    between atoms: _382  and  _383
REMARK  155  A    between atoms: _382  and  _385
REMARK  156  A    between atoms: _385  and  _386
REMARK  157  A    between atoms: _386  and  _387
REMARK  158  A    between atoms: _387  and  _388
REMARK  159  A    between atoms: _397  and  _399
REMARK  160  A    between atoms: _399  and  _400
REMARK  161  A    between atoms: _399  and  _402
REMARK  162  A    between atoms: _402  and  _403
REMARK  163  A    between atoms: _408  and  _410
REMARK  164  A    between atoms: _410  and  _411
REMARK  165  A    between atoms: _410  and  _413
REMARK  166  A    between atoms: _413  and  _414
REMARK  167  A    between atoms: _414  and  _415
REMARK  168  A    between atoms: _415  and  _416
REMARK  169  A    between atoms: _426  and  _427
REMARK  170  A    between atoms: _432  and  _434
REMARK  171  A    between atoms: _434  and  _435
REMARK  172  A    between atoms: _434  and  _437
REMARK  173  A    between atoms: _437  and  _438
REMARK  174  A    between atoms: _440  and  _442
REMARK  175  A    between atoms: _442  and  _443
REMARK  176  A    between atoms: _442  and  _445
REMARK  177  A    between atoms: _445  and  _446
REMARK  178  A    between atoms: _449  and  _451
REMARK  179  A    between atoms: _451  and  _452
REMARK  180  A    between atoms: _451  and  _454
REMARK  181  A    between atoms: _454  and  _455
REMARK  182  A    between atoms: _455  and  _456
REMARK  183  A    between atoms: _459  and  _461
REMARK  184  A    between atoms: _461  and  _462
REMARK  185  A    between atoms: _461  and  _464
REMARK  186  A    between atoms: _464  and  _465
REMARK  187  A    between atoms: _465  and  _466
REMARK                            x       y       z     vdW  Elec       q    Type
REMARK                         _______ _______ _______ _____ _____    ______ ____
ROOT
ATOM      1  C   ASN A   5      -3.152 -77.218-137.530  0.00  0.00    +0.241 C 
ATOM      2  N   ARG A   6      -3.943 -77.851-136.678  0.00  0.00    -0.297 N 
ATOM      3  H   ARG A   6      -4.972 -77.835-136.829  0.00  0.00    +0.150 HD
ATOM      4  O   ASN A   5      -1.928 -77.128-137.378  0.00  0.00    -0.273 OA
ENDROOT
BRANCH   2   5
ATOM      5  CA  ARG A   6      -3.402 -78.568-135.536  0.00  0.00    +0.149 C 
BRANCH   5   6
ATOM      6  C   ARG A   6      -3.422 -80.025-136.015  0.00  0.00    +0.241 C 
ATOM      7  N   ILE A   7      -2.401 -80.796-135.667  0.00  0.00    -0.297 N 
ATOM      8  H   ILE A   7      -1.640 -80.409-135.074  0.00  0.00    +0.150 HD
ATOM      9  O   ARG A   6      -4.344 -80.438-136.717  0.00  0.00    -0.273 OA
BRANCH   7  10
ATOM     10  CA  ILE A   7      -2.340 -82.181-136.111  0.00  0.00    +0.149 C 
BRANCH  10  11
ATOM     11  C   ILE A   7      -3.581 -82.969-135.716  0.00  0.00    +0.241 C 
ATOM     12  O   ILE A   7      -3.971 -82.995-134.550  0.00  0.00    -0.273 OA
ATOM     13  N   GLY A   8      -4.196 -83.610-136.706  0.00  0.00    -0.295 N 
ATOM     14  H   GLY A   8      -3.819 -83.543-137.673  0.00  0.00    +0.150 HD
BRANCH  13  15
ATOM     15  CA  GLY A   8      -5.386 -84.402-136.455  0.00  0.00    +0.176 C 
BRANCH  15  16
ATOM     16  C   GLY A   8      -6.667 -83.758-136.946  0.00  0.00    +0.243 C 
ATOM     17  O   GLY A   8      -7.722 -84.396-136.950  0.00  0.00    -0.273 OA
ATOM     18  N   ASP A   9      -6.580 -82.493-137.354  0.00  0.00    -0.297 N 
ATOM     19  H   ASP A   9      -5.660 -82.009-137.319  0.00  0.00    +0.150 HD
BRANCH  18  20
ATOM     20  CA  ASP A   9      -7.749 -81.773-137.849  0.00  0.00    +0.148 C 
BRANCH  20  21
ATOM     21  C   ASP A   9      -8.204 -82.340-139.188  0.00  0.00    +0.227 C 
ATOM     22  O   ASP A   9      -7.383 -82.621-140.068  0.00  0.00    -0.286 OA
ENDBRANCH  20  21
BRANCH  20  23
ATOM     23  CB  ASP A   9      -7.448 -80.278-138.011  0.00  0.00    +0.142 C 
BRANCH  23  24
ATOM     24  CG  ASP A   9      -7.240 -79.575-136.685  0.00  0.00    +0.367 C 
ATOM     25  OD2 ASP A   9      -7.690 -80.117-135.653  0.00  0.00    -0.246 OA
ATOM     26  OD1 ASP A   9      -6.641 -78.477-136.676  0.00  0.00    -0.246 OA
ENDBRANCH  23  24
ENDBRANCH  20  23
ENDBRANCH  18  20
ENDBRANCH  15  16
ENDBRANCH  13  15
ENDBRANCH  10  11
BRANCH  10  27
ATOM     27  CB  ILE A   7      -1.085 -82.888-135.554  0.00  0.00    +0.027 C 
ATOM     28  CG2 ILE A   7      -1.210 -84.400-135.727  0.00  0.00    +0.002 C 
BRANCH  27  29
ATOM     29  CG1 ILE A   7       0.168 -82.357-136.265  0.00  0.00    +0.002 C 
ATOM     30  CD1 ILE A   7       0.544 -83.080-137.550  0.00  0.00    +0.000 C 
ENDBRANCH  27  29
ENDBRANCH  10  27
ENDBRANCH   7  10
ENDBRANCH   5   6
BRANCH   5  31
ATOM     31  CB  ARG A   6      -4.286 -78.371-134.294  0.00  0.00    +0.033 C 
BRANCH  31  32
ATOM     32  CG  ARG A   6      -4.390 -76.915-133.842  0.00  0.00    +0.045 C 
BRANCH  32  33
ATOM     33  CD  ARG A   6      -4.953 -76.806-132.433  0.00  0.00    +0.174 C 
BRANCH  33  34
ATOM     34  NE  ARG A   6      -4.876 -75.449-131.895  0.00  0.00    -0.265 N 
ATOM     35  HE  ARG A   6      -4.089 -75.229-131.251  0.00  0.00    +0.259 HD
ATOM     36  CZ  ARG A   6      -5.741 -74.475-132.170  0.00  0.00    +0.342 C 
ATOM     37  NH2 ARG A   6      -5.588 -73.277-131.613  0.00  0.00    -0.292 N 
ATOM     38 HH21 ARG A   6      -4.794 -73.103-130.964  0.00  0.00    +0.255 HD
ATOM     39 HH22 ARG A   6      -6.262 -72.514-131.826  0.00  0.00    +0.255 HD
ATOM     40  NH1 ARG A   6      -6.766 -74.700-132.987  0.00  0.00    -0.292 N 
ATOM     41 HH11 ARG A   6      -7.439 -73.936-133.199  0.00  0.00    +0.255 HD
ATOM     42 HH12 ARG A   6      -6.894 -75.640-133.414  0.00  0.00    +0.255 HD
ENDBRANCH  33  34
ENDBRANCH  32  33
ENDBRANCH  31  32
ENDBRANCH   5  31
ENDBRANCH   2   5
BRANCH   1  43
ATOM     43  CA  ASN A   5      -3.860 -76.577-138.716  0.00  0.00    +0.158 C 
BRANCH  43  45
ATOM     44  C   SER A   4      -3.499 -74.874-140.401  0.00  0.00    +0.243 C 
ATOM     45  N   ASN A   5      -3.016 -75.621-139.416  0.00  0.00    -0.297 N 
ATOM     46  H   ASN A   5      -2.018 -75.521-139.140  0.00  0.00    +0.150 HD
ATOM     47  O   SER A   4      -4.677 -74.923-140.765  0.00  0.00    -0.273 OA
BRANCH  44  48
ATOM     48  CA  SER A   4      -2.512 -73.918-141.062  0.00  0.00    +0.178 C 
BRANCH  48  51
ATOM     49  C   VAL A   3      -0.860 -72.786-139.684  0.00  0.00    +0.241 C 
ATOM     50  O   VAL A   3      -1.563 -71.772-139.610  0.00  0.00    -0.273 OA
ATOM     51  N   SER A   4      -1.228 -73.871-140.362  0.00  0.00    -0.295 N 
ATOM     52  H   SER A   4      -0.595 -74.695-140.395  0.00  0.00    +0.150 HD
BRANCH  49  53
ATOM     53  CA  VAL A   3       0.498 -72.834-138.997  0.00  0.00    +0.149 C 
BRANCH  53  55
ATOM     54  C   ALA A   2       1.581 -71.604-140.771  0.00  0.00    +0.241 C 
ATOM     55  N   VAL A   3       1.287 -71.714-139.483  0.00  0.00    -0.297 N 
ATOM     56  H   VAL A   3       1.624 -70.992-138.814  0.00  0.00    +0.150 HD
ATOM     57  O   ALA A   2       1.241 -72.443-141.600  0.00  0.00    -0.273 OA
BRANCH  54  58
ATOM     58  CA  ALA A   2       2.406 -70.390-141.185  0.00  0.00    +0.149 C 
ATOM     59  CB  ALA A   2       1.687 -69.615-142.275  0.00  0.00    +0.031 C 
BRANCH  58  62
ATOM     60  C   LEU A   1       4.825 -70.650-141.128  0.00  0.00    +0.238 C 
ATOM     61  O   LEU A   1       4.956 -69.901-140.158  0.00  0.00    -0.274 OA
ATOM     62  N   ALA A   2       3.658 -70.925-141.690  0.00  0.00    -0.297 N 
ATOM     63  H   ALA A   2       3.637 -71.547-142.523  0.00  0.00    +0.150 HD
BRANCH  60  64
ATOM     64  CA  LEU A   1       6.012 -71.338-141.765  0.00  0.00    +0.145 C 
BRANCH  64  65
ATOM     65  N   LEU A   1       7.283 -70.659-141.600  0.00  0.00    -0.238 NA
ATOM     66  H   LEU A   1       7.604 -70.391-140.648  0.00  0.00    +0.142 HD
ENDBRANCH  64  65
BRANCH  64  67
ATOM     67  CB  LEU A   1       6.140 -72.745-141.190  0.00  0.00    +0.026 C 
BRANCH  67  68
ATOM     68  CG  LEU A   1       7.386 -73.464-141.696  0.00  0.00    +0.002 C 
ATOM     69  CD2 LEU A   1       8.031 -74.239-140.575  0.00  0.00    +0.000 C 
ATOM     70  CD1 LEU A   1       7.011 -74.362-142.848  0.00  0.00    +0.000 C 
ENDBRANCH  67  68
ENDBRANCH  64  67
ENDBRANCH  60  64
ENDBRANCH  58  62
ENDBRANCH  54  58
ENDBRANCH  53  55
BRANCH  53  71
ATOM     71  CB  VAL A   3       0.297 -72.745-137.477  0.00  0.00    +0.027 C 
ATOM     72  CG2 VAL A   3       1.649 -72.650-136.780  0.00  0.00    +0.002 C 
ATOM     73  CG1 VAL A   3      -0.479 -73.951-136.990  0.00  0.00    +0.002 C 
ENDBRANCH  53  71
ENDBRANCH  49  53
ENDBRANCH  48  51
BRANCH  48  74
ATOM     74  CB  SER A   4      -2.302 -74.320-142.523  0.00  0.00    +0.166 C 
BRANCH  74  75
ATOM     75  OG  SER A   4      -1.600 -75.541-142.611  0.00  0.00    -0.380 OA
ATOM     76  H   SER A   4      -1.476 -75.781-143.563  0.00  0.00    +0.211 HD
ENDBRANCH  74  75
ENDBRANCH  48  74
ENDBRANCH  44  48
ENDBRANCH  43  45
BRANCH  43  77
ATOM     77  CB  ASN A   5      -4.279 -77.675-139.682  0.00  0.00    +0.114 C 
BRANCH  77  78
ATOM     78  CG  ASN A   5      -3.108 -78.552-140.102  0.00  0.00    +0.222 C 
ATOM     79  OD1 ASN A   5      -2.854 -79.598-139.505  0.00  0.00    -0.275 OA
ATOM     80  ND2 ASN A   5      -2.376 -78.117-141.120  0.00  0.00    -0.329 N 
ATOM     81 HD21 ASN A   5      -1.553 -78.666-141.441  0.00  0.00    +0.145 HD
ATOM     82 HD22 ASN A   5      -2.625 -77.227-141.597  0.00  0.00    +0.145 HD
ENDBRANCH  77  78
ENDBRANCH  43  77
ENDBRANCH   1  43
TORSDOF 33
REMARK  Name = ../refined-set-2016/1odi/1odi_pocket.pdb
REMARK  187 active torsions:
REMARK  status: ('A' for Active; 'I' for Inactive)
REMARK    1  A    between atoms: _2  and  _3
REMARK    2  A    between atoms: _8  and  _10
REMARK    3  A    between atoms: _10  and  _11
REMARK    4  A    between atoms: _13  and  _15
REMARK    5  A    between atoms: _15  and  _16
REMARK    6  A    between atoms: _15  and  _18
REMARK    7  A    between atoms: _18  and  _19
REMARK    8  A    between atoms: _22  and  _24
REMARK    9  A    between atoms: _24  and  _25
REMARK   10  A    between atoms: _24  and  _27
REMARK   11  A    between atoms: _27  and  _28
REMARK   12  A    between atoms: _28  and  _29
REMARK   13  A    between atoms: _29  and  _30
REMARK   14  A    between atoms: _39  and  _41
REMARK   15  A    between atoms: _41  and  _42
REMARK   16  A    between atoms: _41  and  _44
REMARK   17  A    between atoms: _44  and  _45
REMARK   18  A    between atoms: _48  and  _50
REMARK   19  A    between atoms: _50  and  _51
REMARK   20  A    between atoms: _53  and  _55
REMARK   21  A    between atoms: _55  and  _56
REMARK   22  A    between atoms: _55  and  _58
REMARK   23  A    between atoms: _58  and  _59
REMARK   24  A    between atoms: _59  and  _60
REMARK   25  A    between atoms: _62  and  _64
REMARK   26  A    between atoms: _64  and  _65
REMARK   27  A    between atoms: _67  and  _69
REMARK   28  A    between atoms: _69  and  _70
REMARK   29  A    between atoms: _69  and  _72
REMARK   30  A    between atoms: _72  and  _73
REMARK   31  A    between atoms: _76  and  _78
REMARK   32  A    between atoms: _78  and  _79
REMARK   33  A    between atoms: _78  and  _81
REMARK   34  A    between atoms: _81  and  _82
REMARK   35  A    between atoms: _82  and  _83
REMARK   36  A    between atoms: _83  and  _84
REMARK   37  A    between atoms: _93  and  _95
REMARK   38  A    between atoms: _95  and  _96
REMARK   39  A    between atoms: _98  and  _100
REMARK   40  A    between atoms: _100  and  _101
REMARK   41  A    between atoms: _100  and  _103
REMARK   42  A    between atoms: _103  and  _104
REMARK   43  A    between atoms: _107  and  _109
REMARK   44  A    between atoms: _109  and  _110
REMARK   45  A    between atoms: _113  and  _115
REMARK   46  A    between atoms: _115  and  _116
REMARK   47  A    between atoms: _118  and  _120
REMARK   48  A    between atoms: _120  and  _121
REMARK   49  A    between atoms: _124  and  _126
REMARK   50  A    between atoms: _126  and  _127
REMARK   51  A    between atoms: _130  and  _132
REMARK   52  A    between atoms: _132  and  _133
REMARK   53  A    between atoms: _136  and  _138
REMARK   54  A    between atoms: _138  and  _139
REMARK   55  A    between atoms: _138  and  _141
REMARK   56  A    between atoms: _141  and  _142
REMARK   57  A    between atoms: _144  and  _146
REMARK   58  A    between atoms: _146  and  _147
REMARK   59  A    between atoms: _146  and  _149
REMARK   60  A    between atoms: _149  and  _150
REMARK   61  A    between atoms: _150  and  _151
REMARK   62  A    between atoms: _154  and  _156
REMARK   63  A    between atoms: _156  and  _157
REMARK   64  A    between atoms: _156  and  _159
REMARK   65  A    between atoms: _159  and  _160
REMARK   66  A    between atoms: _163  and  _165
REMARK   67  A    between atoms: _165  and  _166
REMARK   68  A    between atoms: _169  and  _171
REMARK   69  A    between atoms: _171  and  _172
REMARK   70  A    between atoms: _171  and  _174
REMARK   71  A    between atoms: _174  and  _175
REMARK   72  A    between atoms: _181  and  _183
REMARK   73  A    between atoms: _183  and  _184
REMARK   74  A    between atoms: _183  and  _186
REMARK   75  A    between atoms: _186  and  _187
REMARK   76  A    between atoms: _192  and  _193
REMARK   77  A    between atoms: _195  and  _197
REMARK   78  A    between atoms: _197  and  _198
REMARK   79  A    between atoms: _201  and  _203
REMARK   80  A    between atoms: _203  and  _204
REMARK   81  A    between atoms: _203  and  _206
REMARK   82  A    between atoms: _206  and  _207
REMARK   83  A    between atoms: _210  and  _212
REMARK   84  A    between atoms: _212  and  _213
REMARK   85  A    between atoms: _216  and  _218
REMARK   86  A    between atoms: _218  and  _219
REMARK   87  A    between atoms: _218  and  _221
REMARK   88  A    between atoms: _221  and  _222
REMARK   89  A    between atoms: _228  and  _230
REMARK   90  A    between atoms: _230  and  _231
REMARK   91  A    between atoms: _230  and  _233
REMARK   92  A    between atoms: _233  and  _234
REMARK   93  A    between atoms: _234  and  _235
REMARK   94  A    between atoms: _238  and  _240
REMARK   95  A    between atoms: _240  and  _241
REMARK   96  A    between atoms: _240  and  _243
REMARK   97  A    between atoms: _243  and  _244
REMARK   98  A    between atoms: _244  and  _245
REMARK   99  A    between atoms: _247  and  _249
REMARK  100  A    between atoms: _249  and  _250
REMARK  101  A    between atoms: _249  and  _252
REMARK  102  A    between atoms: _252  and  _253
REMARK  103  A    between atoms: _253  and  _254
REMARK  104  A    between atoms: _257  and  _259
REMARK  105  A    between atoms: _259  and  _260
REMARK  106  A    between atoms: _263  and  _265
REMARK  107  A    between atoms: _265  and  _266
REMARK  108  A    between atoms: _265  and  _268
REMARK  109  A    between atoms: _268  and  _269
REMARK  110  A    between atoms: _272  and  _274
REMARK  111  A    between atoms: _274  and  _275
REMARK  112  A    between atoms: _278  and  _280
REMARK  113  A    between atoms: _280  and  _281
REMARK  114  A    between atoms: _280  and  _283
REMARK  115  A    between atoms: _286  and  _288
REMARK  116  A    between atoms: _288  and  _289
REMARK  117  A    between atoms: _288  and  _291
REMARK  118  A    between atoms: _291  and  _292
REMARK  119  A    between atoms: _294  and  _296
REMARK  120  A    between atoms: _296  and  _297
REMARK  121  A    between atoms: _296  and  _299
REMARK  122  A    between atoms: _299  and  _300
REMARK  123  A    between atoms: _305  and  _307
REMARK  124  A    between atoms: _307  and  _308
REMARK  125  A    between atoms: _307  and  _310
REMARK  126  A    between atoms: _310  and  _311
REMARK  127  A    between atoms: _311  and  _312
REMARK  128  A    between atoms: _312  and  _313
REMARK  129  A    between atoms: _322  and  _324
REMARK  130  A    between atoms: _324  and  _325
REMARK  131  A    between atoms: _324  and  _327
REMARK  132  A    between atoms: _327  and  _328
REMARK  133  A    between atoms: _331  and  _333
REMARK  134  A    between atoms: _333  and  _334
REMARK  135  A    between atoms: _336  and  _338
REMARK  136  A    between atoms: _338  and  _339
REMARK  137  A    between atoms: _338  and  _341
REMARK  138  A    between atoms: _341  and  _342
REMARK  139  A    between atoms: _345  and  _347
REMARK  140  A    between atoms: _347  and  _348
REMARK  141  A    between atoms: _347  and  _350
REMARK  142  A    between atoms: _350  and  _351
REMARK  143  A    between atoms: _354  and  _356
REMARK  144  A    between atoms: _356  and  _357
REMARK  145  A    between atoms: _360  and  _362
REMARK  146  A    between atoms: _362  and  _363
REMARK  147  A    between atoms: _362  and  _365
REMARK  148  A    between atoms: _365  and  _366
REMARK  149  A    between atoms: _369  and  _371
REMARK  150  A    between atoms: _371  and  _372
REMARK  151  A    between atoms: _371  and  _374
REMARK  152  A    between atoms: _374  and  _375
REMARK  153  A    between atoms: _380  and  _382
REMARK  154  A    between atoms: _382  and  _383
REMARK  155  A    between atoms: _382  and  _385
REMARK  156  A    between atoms: _385  and  _386
REMARK  157  A    between atoms: _386  and  _387
REMARK  158  A    between atoms: _387  and  _388
REMARK  159  A    between atoms: _397  and  _399
REMARK  160  A    between atoms: _399  and  _400
REMARK  161  A    between atoms: _399  and  _402
REMARK  162  A    between atoms: _402  and  _403
REMARK  163  A    between atoms: _408  and  _410
REMARK  164  A    between atoms: _410  and  _411
REMARK  165  A    between atoms: _410  and  _413
REMARK  166  A    between atoms: _413  and  _414
REMARK  167  A    between atoms: _414  and  _415
REMARK  168  A    between atoms: _415  and  _416
REMARK  169  A    between atoms: _426  and  _427
REMARK  170  A    between atoms: _432  and  _434
REMARK  171  A    between atoms: _434  and  _435
REMARK  172  A    between atoms: _434  and  _437
REMARK  173  A    between atoms: _437  and  _438
REMARK  174  A    between atoms: _440  and  _442
REMARK  175  A    between atoms: _442  and  _443
REMARK  176  A    between atoms: _442  and  _445
REMARK  177  A    between atoms: _445  and  _446
REMARK  178  A    between atoms: _449  and  _451
REMARK  179  A    between atoms: _451  and  _452
REMARK  180  A    between atoms: _451  and  _454
REMARK  181  A    between atoms: _454  and  _455
REMARK  182  A    between atoms: _455  and  _456
REMARK  183  A    between atoms: _459  and  _461
REMARK  184  A    between atoms: _461  and  _462
REMARK  185  A    between atoms: _461  and  _464
REMARK  186  A    between atoms: _464  and  _465
REMARK  187  A    between atoms: _465  and  _466
REMARK                            x       y       z     vdW  Elec       q    Type
REMARK                         _______ _______ _______ _____ _____    ______ ____
ROOT
ATOM      1  C   LEU A   1      -8.285 -75.562-142.005  0.00  0.00    +0.238 C 
ATOM      2  N   ALA A   2      -7.624 -74.535-141.479  0.00  0.00    -0.298 N 
ATOM      3  H   ALA A   2      -6.584 -74.548-141.474  0.00  0.00    +0.150 HD
ATOM      4  O   LEU A   1      -9.514 -75.613-142.039  0.00  0.00    -0.274 OA
ENDROOT
BRANCH   2   5
ATOM      5  CA  ALA A   2      -8.328 -73.388-140.908  0.00  0.00    +0.137 C 
ATOM      6  CB  ALA A   2      -7.361 -72.523-140.116  0.00  0.00    +0.030 C 
BRANCH   5   7
ATOM      7  C   ALA A   2      -9.003 -72.552-141.995  0.00  0.00    +0.227 C 
ATOM      8  O   ALA A   2      -8.642 -72.633-143.171  0.00  0.00    -0.286 OA
ENDBRANCH   5   7
ENDBRANCH   2   5
BRANCH   1   9
ATOM      9  CA  LEU A   1      -7.452 -76.703-142.578  0.00  0.00    +0.145 C 
BRANCH   9  10
ATOM     10  N   LEU A   1      -8.361 -77.790-142.927  0.00  0.00    -0.238 NA
ATOM     11  H   LEU A   1      -8.760 -77.829-143.887  0.00  0.00    +0.142 HD
ENDBRANCH   9  10
BRANCH   9  12
ATOM     12  CB  LEU A   1      -6.692 -76.218-143.819  0.00  0.00    +0.026 C 
BRANCH  12  13
ATOM     13  CG  LEU A   1      -5.853 -77.241-144.595  0.00  0.00    +0.002 C 
ATOM     14  CD2 LEU A   1      -4.796 -77.858-143.685  0.00  0.00    +0.000 C 
ATOM     15  CD1 LEU A   1      -5.200 -76.557-145.787  0.00  0.00    +0.000 C 
ENDBRANCH  12  13
ENDBRANCH   9  12
ENDBRANCH   1   9
TORSDOF 6
REMARK  Name = ../refined-set-2016/1odi/1odi_pocket.pdb
REMARK  187 active torsions:
REMARK  status: ('A' for Active; 'I' for Inactive)
REMARK    1  A    between atoms: _2  and  _3
REMARK    2  A    between atoms: _8  and  _10
REMARK    3  A    between atoms: _10  and  _11
REMARK    4  A    between atoms: _13  and  _15
REMARK    5  A    between atoms: _15  and  _16
REMARK    6  A    between atoms: _15  and  _18
REMARK    7  A    between atoms: _18  and  _19
REMARK    8  A    between atoms: _22  and  _24
REMARK    9  A    between atoms: _24  and  _25
REMARK   10  A    between atoms: _24  and  _27
REMARK   11  A    between atoms: _27  and  _28
REMARK   12  A    between atoms: _28  and  _29
REMARK   13  A    between atoms: _29  and  _30
REMARK   14  A    between atoms: _39  and  _41
REMARK   15  A    between atoms: _41  and  _42
REMARK   16  A    between atoms: _41  and  _44
REMARK   17  A    between atoms: _44  and  _45
REMARK   18  A    between atoms: _48  and  _50
REMARK   19  A    between atoms: _50  and  _51
REMARK   20  A    between atoms: _53  and  _55
REMARK   21  A    between atoms: _55  and  _56
REMARK   22  A    between atoms: _55  and  _58
REMARK   23  A    between atoms: _58  and  _59
REMARK   24  A    between atoms: _59  and  _60
REMARK   25  A    between atoms: _62  and  _64
REMARK   26  A    between atoms: _64  and  _65
REMARK   27  A    between atoms: _67  and  _69
REMARK   28  A    between atoms: _69  and  _70
REMARK   29  A    between atoms: _69  and  _72
REMARK   30  A    between atoms: _72  and  _73
REMARK   31  A    between atoms: _76  and  _78
REMARK   32  A    between atoms: _78  and  _79
REMARK   33  A    between atoms: _78  and  _81
REMARK   34  A    between atoms: _81  and  _82
REMARK   35  A    between atoms: _82  and  _83
REMARK   36  A    between atoms: _83  and  _84
REMARK   37  A    between atoms: _93  and  _95
REMARK   38  A    between atoms: _95  and  _96
REMARK   39  A    between atoms: _98  and  _100
REMARK   40  A    between atoms: _100  and  _101
REMARK   41  A    between atoms: _100  and  _103
REMARK   42  A    between atoms: _103  and  _104
REMARK   43  A    between atoms: _107  and  _109
REMARK   44  A    between atoms: _109  and  _110
REMARK   45  A    between atoms: _113  and  _115
REMARK   46  A    between atoms: _115  and  _116
REMARK   47  A    between atoms: _118  and  _120
REMARK   48  A    between atoms: _120  and  _121
REMARK   49  A    between atoms: _124  and  _126
REMARK   50  A    between atoms: _126  and  _127
REMARK   51  A    between atoms: _130  and  _132
REMARK   52  A    between atoms: _132  and  _133
REMARK   53  A    between atoms: _136  and  _138
REMARK   54  A    between atoms: _138  and  _139
REMARK   55  A    between atoms: _138  and  _141
REMARK   56  A    between atoms: _141  and  _142
REMARK   57  A    between atoms: _144  and  _146
REMARK   58  A    between atoms: _146  and  _147
REMARK   59  A    between atoms: _146  and  _149
REMARK   60  A    between atoms: _149  and  _150
REMARK   61  A    between atoms: _150  and  _151
REMARK   62  A    between atoms: _154  and  _156
REMARK   63  A    between atoms: _156  and  _157
REMARK   64  A    between atoms: _156  and  _159
REMARK   65  A    between atoms: _159  and  _160
REMARK   66  A    between atoms: _163  and  _165
REMARK   67  A    between atoms: _165  and  _166
REMARK   68  A    between atoms: _169  and  _171
REMARK   69  A    between atoms: _171  and  _172
REMARK   70  A    between atoms: _171  and  _174
REMARK   71  A    between atoms: _174  and  _175
REMARK   72  A    between atoms: _181  and  _183
REMARK   73  A    between atoms: _183  and  _184
REMARK   74  A    between atoms: _183  and  _186
REMARK   75  A    between atoms: _186  and  _187
REMARK   76  A    between atoms: _192  and  _193
REMARK   77  A    between atoms: _195  and  _197
REMARK   78  A    between atoms: _197  and  _198
REMARK   79  A    between atoms: _201  and  _203
REMARK   80  A    between atoms: _203  and  _204
REMARK   81  A    between atoms: _203  and  _206
REMARK   82  A    between atoms: _206  and  _207
REMARK   83  A    between atoms: _210  and  _212
REMARK   84  A    between atoms: _212  and  _213
REMARK   85  A    between atoms: _216  and  _218
REMARK   86  A    between atoms: _218  and  _219
REMARK   87  A    between atoms: _218  and  _221
REMARK   88  A    between atoms: _221  and  _222
REMARK   89  A    between atoms: _228  and  _230
REMARK   90  A    between atoms: _230  and  _231
REMARK   91  A    between atoms: _230  and  _233
REMARK   92  A    between atoms: _233  and  _234
REMARK   93  A    between atoms: _234  and  _235
REMARK   94  A    between atoms: _238  and  _240
REMARK   95  A    between atoms: _240  and  _241
REMARK   96  A    between atoms: _240  and  _243
REMARK   97  A    between atoms: _243  and  _244
REMARK   98  A    between atoms: _244  and  _245
REMARK   99  A    between atoms: _247  and  _249
REMARK  100  A    between atoms: _249  and  _250
REMARK  101  A    between atoms: _249  and  _252
REMARK  102  A    between atoms: _252  and  _253
REMARK  103  A    between atoms: _253  and  _254
REMARK  104  A    between atoms: _257  and  _259
REMARK  105  A    between atoms: _259  and  _260
REMARK  106  A    between atoms: _263  and  _265
REMARK  107  A    between atoms: _265  and  _266
REMARK  108  A    between atoms: _265  and  _268
REMARK  109  A    between atoms: _268  and  _269
REMARK  110  A    between atoms: _272  and  _274
REMARK  111  A    between atoms: _274  and  _275
REMARK  112  A    between atoms: _278  and  _280
REMARK  113  A    between atoms: _280  and  _281
REMARK  114  A    between atoms: _280  and  _283
REMARK  115  A    between atoms: _286  and  _288
REMARK  116  A    between atoms: _288  and  _289
REMARK  117  A    between atoms: _288  and  _291
REMARK  118  A    between atoms: _291  and  _292
REMARK  119  A    between atoms: _294  and  _296
REMARK  120  A    between atoms: _296  and  _297
REMARK  121  A    between atoms: _296  and  _299
REMARK  122  A    between atoms: _299  and  _300
REMARK  123  A    between atoms: _305  and  _307
REMARK  124  A    between atoms: _307  and  _308
REMARK  125  A    between atoms: _307  and  _310
REMARK  126  A    between atoms: _310  and  _311
REMARK  127  A    between atoms: _311  and  _312
REMARK  128  A    between atoms: _312  and  _313
REMARK  129  A    between atoms: _322  and  _324
REMARK  130  A    between atoms: _324  and  _325
REMARK  131  A    between atoms: _324  and  _327
REMARK  132  A    between atoms: _327  and  _328
REMARK  133  A    between atoms: _331  and  _333
REMARK  134  A    between atoms: _333  and  _334
REMARK  135  A    between atoms: _336  and  _338
REMARK  136  A    between atoms: _338  and  _339
REMARK  137  A    between atoms: _338  and  _341
REMARK  138  A    between atoms: _341  and  _342
REMARK  139  A    between atoms: _345  and  _347
REMARK  140  A    between atoms: _347  and  _348
REMARK  141  A    between atoms: _347  and  _350
REMARK  142  A    between atoms: _350  and  _351
REMARK  143  A    between atoms: _354  and  _356
REMARK  144  A    between atoms: _356  and  _357
REMARK  145  A    between atoms: _360  and  _362
REMARK  146  A    between atoms: _362  and  _363
REMARK  147  A    between atoms: _362  and  _365
REMARK  148  A    between atoms: _365  and  _366
REMARK  149  A    between atoms: _369  and  _371
REMARK  150  A    between atoms: _371  and  _372
REMARK  151  A    between atoms: _371  and  _374
REMARK  152  A    between atoms: _374  and  _375
REMARK  153  A    between atoms: _380  and  _382
REMARK  154  A    between atoms: _382  and  _383
REMARK  155  A    between atoms: _382  and  _385
REMARK  156  A    between atoms: _385  and  _386
REMARK  157  A    between atoms: _386  and  _387
REMARK  158  A    between atoms: _387  and  _388
REMARK  159  A    between atoms: _397  and  _399
REMARK  160  A    between atoms: _399  and  _400
REMARK  161  A    between atoms: _399  and  _402
REMARK  162  A    between atoms: _402  and  _403
REMARK  163  A    between atoms: _408  and  _410
REMARK  164  A    between atoms: _410  and  _411
REMARK  165  A    between atoms: _410  and  _413
REMARK  166  A    between atoms: _413  and  _414
REMARK  167  A    between atoms: _414  and  _415
REMARK  168  A    between atoms: _415  and  _416
REMARK  169  A    between atoms: _426  and  _427
REMARK  170  A    between atoms: _432  and  _434
REMARK  171  A    between atoms: _434  and  _435
REMARK  172  A    between atoms: _434  and  _437
REMARK  173  A    between atoms: _437  and  _438
REMARK  174  A    between atoms: _440  and  _442
REMARK  175  A    between atoms: _442  and  _443
REMARK  176  A    between atoms: _442  and  _445
REMARK  177  A    between atoms: _445  and  _446
REMARK  178  A    between atoms: _449  and  _451
REMARK  179  A    between atoms: _451  and  _452
REMARK  180  A    between atoms: _451  and  _454
REMARK  181  A    between atoms: _454  and  _455
REMARK  182  A    between atoms: _455  and  _456
REMARK  183  A    between atoms: _459  and  _461
REMARK  184  A    between atoms: _461  and  _462
REMARK  185  A    between atoms: _461  and  _464
REMARK  186  A    between atoms: _464  and  _465
REMARK  187  A    between atoms: _465  and  _466
REMARK                            x       y       z     vdW  Elec       q    Type
REMARK                         _______ _______ _______ _____ _____    ______ ____
ROOT
ATOM      1  C   ILE A   1      -6.526 -81.411-148.778  0.00  0.00    +0.238 C 
ATOM      2  O   ILE A   1      -6.328 -80.232-149.061  0.00  0.00    -0.274 OA
ATOM      3  N   HIS A   2      -6.118 -82.405-149.565  0.00  0.00    -0.298 N 
ATOM      4  H   HIS A   2      -6.342 -83.389-149.315  0.00  0.00    +0.150 HD
ENDROOT
BRANCH   1   5
ATOM      5  CA  ILE A   1      -7.283 -81.770-147.497  0.00  0.00    +0.145 C 
BRANCH   5   6
ATOM      6  N   ILE A   1      -8.173 -82.910-147.606  0.00  0.00    -0.238 NA
ATOM      7  H   ILE A   1      -7.986 -83.757-147.032  0.00  0.00    +0.142 HD
ENDBRANCH   5   6
BRANCH   5   8
ATOM      8  CB  ILE A   1      -6.275 -81.984-146.350  0.00  0.00    +0.025 C 
ATOM      9  CG2 ILE A   1      -5.266 -80.846-146.307  0.00  0.00    +0.002 C 
BRANCH   8  10
ATOM     10  CG1 ILE A   1      -7.039 -82.074-145.026  0.00  0.00    +0.002 C 
ATOM     11  CD1 ILE A   1      -6.167 -82.091-143.793  0.00  0.00    +0.000 C 
ENDBRANCH   8  10
ENDBRANCH   5   8
ENDBRANCH   1   5
BRANCH   3  12
ATOM     12  CA  HIS A   2      -5.356 -82.117-150.779  0.00  0.00    +0.143 C 
BRANCH  12  13
ATOM     13  C   HIS A   2      -6.109 -82.347-152.088  0.00  0.00    +0.227 C 
ATOM     14  O   HIS A   2      -6.162 -81.462-152.939  0.00  0.00    -0.286 OA
ENDBRANCH  12  13
BRANCH  12  15
ATOM     15  CB  HIS A   2      -4.052 -82.912-150.760  0.00  0.00    +0.075 C 
BRANCH  15  16
ATOM     16  CG  HIS A   2      -3.302 -82.791-149.472  0.00  0.00    +0.082 A 
ATOM     17  ND1 HIS A   2      -3.757 -83.341-148.290  0.00  0.00    -0.227 NA
ATOM     18  CE1 HIS A   2      -2.905 -83.063-147.321  0.00  0.00    +0.199 A 
ATOM     19  NE2 HIS A   2      -1.912 -82.352-147.829  0.00  0.00    -0.221 NA
ATOM     20  CD2 HIS A   2      -2.136 -82.169-149.170  0.00  0.00    +0.115 A 
ENDBRANCH  15  16
ENDBRANCH  12  15
ENDBRANCH   3  12
TORSDOF 8
REMARK  Name = ../refined-set-2016/1odi/1odi_pocket.pdb
REMARK  187 active torsions:
REMARK  status: ('A' for Active; 'I' for Inactive)
REMARK    1  A    between atoms: _2  and  _3
REMARK    2  A    between atoms: _8  and  _10
REMARK    3  A    between atoms: _10  and  _11
REMARK    4  A    between atoms: _13  and  _15
REMARK    5  A    between atoms: _15  and  _16
REMARK    6  A    between atoms: _15  and  _18
REMARK    7  A    between atoms: _18  and  _19
REMARK    8  A    between atoms: _22  and  _24
REMARK    9  A    between atoms: _24  and  _25
REMARK   10  A    between atoms: _24  and  _27
REMARK   11  A    between atoms: _27  and  _28
REMARK   12  A    between atoms: _28  and  _29
REMARK   13  A    between atoms: _29  and  _30
REMARK   14  A    between atoms: _39  and  _41
REMARK   15  A    between atoms: _41  and  _42
REMARK   16  A    between atoms: _41  and  _44
REMARK   17  A    between atoms: _44  and  _45
REMARK   18  A    between atoms: _48  and  _50
REMARK   19  A    between atoms: _50  and  _51
REMARK   20  A    between atoms: _53  and  _55
REMARK   21  A    between atoms: _55  and  _56
REMARK   22  A    between atoms: _55  and  _58
REMARK   23  A    between atoms: _58  and  _59
REMARK   24  A    between atoms: _59  and  _60
REMARK   25  A    between atoms: _62  and  _64
REMARK   26  A    between atoms: _64  and  _65
REMARK   27  A    between atoms: _67  and  _69
REMARK   28  A    between atoms: _69  and  _70
REMARK   29  A    between atoms: _69  and  _72
REMARK   30  A    between atoms: _72  and  _73
REMARK   31  A    between atoms: _76  and  _78
REMARK   32  A    between atoms: _78  and  _79
REMARK   33  A    between atoms: _78  and  _81
REMARK   34  A    between atoms: _81  and  _82
REMARK   35  A    between atoms: _82  and  _83
REMARK   36  A    between atoms: _83  and  _84
REMARK   37  A    between atoms: _93  and  _95
REMARK   38  A    between atoms: _95  and  _96
REMARK   39  A    between atoms: _98  and  _100
REMARK   40  A    between atoms: _100  and  _101
REMARK   41  A    between atoms: _100  and  _103
REMARK   42  A    between atoms: _103  and  _104
REMARK   43  A    between atoms: _107  and  _109
REMARK   44  A    between atoms: _109  and  _110
REMARK   45  A    between atoms: _113  and  _115
REMARK   46  A    between atoms: _115  and  _116
REMARK   47  A    between atoms: _118  and  _120
REMARK   48  A    between atoms: _120  and  _121
REMARK   49  A    between atoms: _124  and  _126
REMARK   50  A    between atoms: _126  and  _127
REMARK   51  A    between atoms: _130  and  _132
REMARK   52  A    between atoms: _132  and  _133
REMARK   53  A    between atoms: _136  and  _138
REMARK   54  A    between atoms: _138  and  _139
REMARK   55  A    between atoms: _138  and  _141
REMARK   56  A    between atoms: _141  and  _142
REMARK   57  A    between atoms: _144  and  _146
REMARK   58  A    between atoms: _146  and  _147
REMARK   59  A    between atoms: _146  and  _149
REMARK   60  A    between atoms: _149  and  _150
REMARK   61  A    between atoms: _150  and  _151
REMARK   62  A    between atoms: _154  and  _156
REMARK   63  A    between atoms: _156  and  _157
REMARK   64  A    between atoms: _156  and  _159
REMARK   65  A    between atoms: _159  and  _160
REMARK   66  A    between atoms: _163  and  _165
REMARK   67  A    between atoms: _165  and  _166
REMARK   68  A    between atoms: _169  and  _171
REMARK   69  A    between atoms: _171  and  _172
REMARK   70  A    between atoms: _171  and  _174
REMARK   71  A    between atoms: _174  and  _175
REMARK   72  A    between atoms: _181  and  _183
REMARK   73  A    between atoms: _183  and  _184
REMARK   74  A    between atoms: _183  and  _186
REMARK   75  A    between atoms: _186  and  _187
REMARK   76  A    between atoms: _192  and  _193
REMARK   77  A    between atoms: _195  and  _197
REMARK   78  A    between atoms: _197  and  _198
REMARK   79  A    between atoms: _201  and  _203
REMARK   80  A    between atoms: _203  and  _204
REMARK   81  A    between atoms: _203  and  _206
REMARK   82  A    between atoms: _206  and  _207
REMARK   83  A    between atoms: _210  and  _212
REMARK   84  A    between atoms: _212  and  _213
REMARK   85  A    between atoms: _216  and  _218
REMARK   86  A    between atoms: _218  and  _219
REMARK   87  A    between atoms: _218  and  _221
REMARK   88  A    between atoms: _221  and  _222
REMARK   89  A    between atoms: _228  and  _230
REMARK   90  A    between atoms: _230  and  _231
REMARK   91  A    between atoms: _230  and  _233
REMARK   92  A    between atoms: _233  and  _234
REMARK   93  A    between atoms: _234  and  _235
REMARK   94  A    between atoms: _238  and  _240
REMARK   95  A    between atoms: _240  and  _241
REMARK   96  A    between atoms: _240  and  _243
REMARK   97  A    between atoms: _243  and  _244
REMARK   98  A    between atoms: _244  and  _245
REMARK   99  A    between atoms: _247  and  _249
REMARK  100  A    between atoms: _249  and  _250
REMARK  101  A    between atoms: _249  and  _252
REMARK  102  A    between atoms: _252  and  _253
REMARK  103  A    between atoms: _253  and  _254
REMARK  104  A    between atoms: _257  and  _259
REMARK  105  A    between atoms: _259  and  _260
REMARK  106  A    between atoms: _263  and  _265
REMARK  107  A    between atoms: _265  and  _266
REMARK  108  A    between atoms: _265  and  _268
REMARK  109  A    between atoms: _268  and  _269
REMARK  110  A    between atoms: _272  and  _274
REMARK  111  A    between atoms: _274  and  _275
REMARK  112  A    between atoms: _278  and  _280
REMARK  113  A    between atoms: _280  and  _281
REMARK  114  A    between atoms: _280  and  _283
REMARK  115  A    between atoms: _286  and  _288
REMARK  116  A    between atoms: _288  and  _289
REMARK  117  A    between atoms: _288  and  _291
REMARK  118  A    between atoms: _291  and  _292
REMARK  119  A    between atoms: _294  and  _296
REMARK  120  A    between atoms: _296  and  _297
REMARK  121  A    between atoms: _296  and  _299
REMARK  122  A    between atoms: _299  and  _300
REMARK  123  A    between atoms: _305  and  _307
REMARK  124  A    between atoms: _307  and  _308
REMARK  125  A    between atoms: _307  and  _310
REMARK  126  A    between atoms: _310  and  _311
REMARK  127  A    between atoms: _311  and  _312
REMARK  128  A    between atoms: _312  and  _313
REMARK  129  A    between atoms: _322  and  _324
REMARK  130  A    between atoms: _324  and  _325
REMARK  131  A    between atoms: _324  and  _327
REMARK  132  A    between atoms: _327  and  _328
REMARK  133  A    between atoms: _331  and  _333
REMARK  134  A    between atoms: _333  and  _334
REMARK  135  A    between atoms: _336  and  _338
REMARK  136  A    between atoms: _338  and  _339
REMARK  137  A    between atoms: _338  and  _341
REMARK  138  A    between atoms: _341  and  _342
REMARK  139  A    between atoms: _345  and  _347
REMARK  140  A    between atoms: _347  and  _348
REMARK  141  A    between atoms: _347  and  _350
REMARK  142  A    between atoms: _350  and  _351
REMARK  143  A    between atoms: _354  and  _356
REMARK  144  A    between atoms: _356  and  _357
REMARK  145  A    between atoms: _360  and  _362
REMARK  146  A    between atoms: _362  and  _363
REMARK  147  A    between atoms: _362  and  _365
REMARK  148  A    between atoms: _365  and  _366
REMARK  149  A    between atoms: _369  and  _371
REMARK  150  A    between atoms: _371  and  _372
REMARK  151  A    between atoms: _371  and  _374
REMARK  152  A    between atoms: _374  and  _375
REMARK  153  A    between atoms: _380  and  _382
REMARK  154  A    between atoms: _382  and  _383
REMARK  155  A    between atoms: _382  and  _385
REMARK  156  A    between atoms: _385  and  _386
REMARK  157  A    between atoms: _386  and  _387
REMARK  158  A    between atoms: _387  and  _388
REMARK  159  A    between atoms: _397  and  _399
REMARK  160  A    between atoms: _399  and  _400
REMARK  161  A    between atoms: _399  and  _402
REMARK  162  A    between atoms: _402  and  _403
REMARK  163  A    between atoms: _408  and  _410
REMARK  164  A    between atoms: _410  and  _411
REMARK  165  A    between atoms: _410  and  _413
REMARK  166  A    between atoms: _413  and  _414
REMARK  167  A    between atoms: _414  and  _415
REMARK  168  A    between atoms: _415  and  _416
REMARK  169  A    between atoms: _426  and  _427
REMARK  170  A    between atoms: _432  and  _434
REMARK  171  A    between atoms: _434  and  _435
REMARK  172  A    between atoms: _434  and  _437
REMARK  173  A    between atoms: _437  and  _438
REMARK  174  A    between atoms: _440  and  _442
REMARK  175  A    between atoms: _442  and  _443
REMARK  176  A    between atoms: _442  and  _445
REMARK  177  A    between atoms: _445  and  _446
REMARK  178  A    between atoms: _449  and  _451
REMARK  179  A    between atoms: _451  and  _452
REMARK  180  A    between atoms: _451  and  _454
REMARK  181  A    between atoms: _454  and  _455
REMARK  182  A    between atoms: _455  and  _456
REMARK  183  A    between atoms: _459  and  _461
REMARK  184  A    between atoms: _461  and  _462
REMARK  185  A    between atoms: _461  and  _464
REMARK  186  A    between atoms: _464  and  _465
REMARK  187  A    between atoms: _465  and  _466
REMARK                            x       y       z     vdW  Elec       q    Type
REMARK                         _______ _______ _______ _____ _____    ______ ____
ROOT
ATOM      1  NE  ARG A   1      -8.650 -77.702-150.435  0.00  0.00    -0.265 N 
ATOM      2  HE  ARG A   1      -8.457 -78.426-149.714  0.00  0.00    +0.259 HD
ATOM      3  CZ  ARG A   1      -8.193 -76.472-150.216  0.00  0.00    +0.342 C 
ATOM      4  NH2 ARG A   1      -7.516 -76.204-149.103  0.00  0.00    -0.292 N 
ATOM      5 HH21 ARG A   1      -7.344 -76.956-148.405  0.00  0.00    +0.255 HD
ATOM      6 HH22 ARG A   1      -7.158 -75.243-148.931  0.00  0.00    +0.255 HD
ATOM      7  NH1 ARG A   1      -8.411 -75.511-151.107  0.00  0.00    -0.292 N 
ATOM      8 HH11 ARG A   1      -8.053 -74.550-150.934  0.00  0.00    +0.255 HD
ATOM      9 HH12 ARG A   1      -8.940 -75.720-151.978  0.00  0.00    +0.255 HD
ENDROOT
BRANCH   1  10
ATOM     10  CD  ARG A   1      -9.403 -78.104-151.618  0.00  0.00    +0.174 C 
BRANCH  10  11
ATOM     11  CG  ARG A   1      -9.507 -79.607-151.698  0.00  0.00    +0.045 C 
BRANCH  11  12
ATOM     12  CB  ARG A   1     -10.368 -80.053-152.857  0.00  0.00    +0.029 C 
BRANCH  12  13
ATOM     13  CA  ARG A   1     -10.482 -81.575-152.969  0.00  0.00    +0.133 C 
BRANCH  13  14
ATOM     14  N   ARG A   1      -9.186 -82.135-153.322  0.00  0.00    -0.239 NA
ATOM     15  H   ARG A   1      -8.484 -81.519-153.779  0.00  0.00    +0.142 HD
ENDBRANCH  13  14
BRANCH  13  16
ATOM     16  C   ARG A   1     -11.617 -81.937-153.904  0.00  0.00    +0.224 C 
ATOM     17  O   ARG A   1     -12.125 -81.089-154.628  0.00  0.00    -0.287 OA
ENDBRANCH  13  16
ENDBRANCH  12  13
ENDBRANCH  11  12
ENDBRANCH  10  11
ENDBRANCH   1  10
TORSDOF 6
REMARK  Name = ../refined-set-2016/1odi/1odi_pocket.pdb
REMARK  187 active torsions:
REMARK  status: ('A' for Active; 'I' for Inactive)
REMARK    1  A    between atoms: _2  and  _3
REMARK    2  A    between atoms: _8  and  _10
REMARK    3  A    between atoms: _10  and  _11
REMARK    4  A    between atoms: _13  and  _15
REMARK    5  A    between atoms: _15  and  _16
REMARK    6  A    between atoms: _15  and  _18
REMARK    7  A    between atoms: _18  and  _19
REMARK    8  A    between atoms: _22  and  _24
REMARK    9  A    between atoms: _24  and  _25
REMARK   10  A    between atoms: _24  and  _27
REMARK   11  A    between atoms: _27  and  _28
REMARK   12  A    between atoms: _28  and  _29
REMARK   13  A    between atoms: _29  and  _30
REMARK   14  A    between atoms: _39  and  _41
REMARK   15  A    between atoms: _41  and  _42
REMARK   16  A    between atoms: _41  and  _44
REMARK   17  A    between atoms: _44  and  _45
REMARK   18  A    between atoms: _48  and  _50
REMARK   19  A    between atoms: _50  and  _51
REMARK   20  A    between atoms: _53  and  _55
REMARK   21  A    between atoms: _55  and  _56
REMARK   22  A    between atoms: _55  and  _58
REMARK   23  A    between atoms: _58  and  _59
REMARK   24  A    between atoms: _59  and  _60
REMARK   25  A    between atoms: _62  and  _64
REMARK   26  A    between atoms: _64  and  _65
REMARK   27  A    between atoms: _67  and  _69
REMARK   28  A    between atoms: _69  and  _70
REMARK   29  A    between atoms: _69  and  _72
REMARK   30  A    between atoms: _72  and  _73
REMARK   31  A    between atoms: _76  and  _78
REMARK   32  A    between atoms: _78  and  _79
REMARK   33  A    between atoms: _78  and  _81
REMARK   34  A    between atoms: _81  and  _82
REMARK   35  A    between atoms: _82  and  _83
REMARK   36  A    between atoms: _83  and  _84
REMARK   37  A    between atoms: _93  and  _95
REMARK   38  A    between atoms: _95  and  _96
REMARK   39  A    between atoms: _98  and  _100
REMARK   40  A    between atoms: _100  and  _101
REMARK   41  A    between atoms: _100  and  _103
REMARK   42  A    between atoms: _103  and  _104
REMARK   43  A    between atoms: _107  and  _109
REMARK   44  A    between atoms: _109  and  _110
REMARK   45  A    between atoms: _113  and  _115
REMARK   46  A    between atoms: _115  and  _116
REMARK   47  A    between atoms: _118  and  _120
REMARK   48  A    between atoms: _120  and  _121
REMARK   49  A    between atoms: _124  and  _126
REMARK   50  A    between atoms: _126  and  _127
REMARK   51  A    between atoms: _130  and  _132
REMARK   52  A    between atoms: _132  and  _133
REMARK   53  A    between atoms: _136  and  _138
REMARK   54  A    between atoms: _138  and  _139
REMARK   55  A    between atoms: _138  and  _141
REMARK   56  A    between atoms: _141  and  _142
REMARK   57  A    between atoms: _144  and  _146
REMARK   58  A    between atoms: _146  and  _147
REMARK   59  A    between atoms: _146  and  _149
REMARK   60  A    between atoms: _149  and  _150
REMARK   61  A    between atoms: _150  and  _151
REMARK   62  A    between atoms: _154  and  _156
REMARK   63  A    between atoms: _156  and  _157
REMARK   64  A    between atoms: _156  and  _159
REMARK   65  A    between atoms: _159  and  _160
REMARK   66  A    between atoms: _163  and  _165
REMARK   67  A    between atoms: _165  and  _166
REMARK   68  A    between atoms: _169  and  _171
REMARK   69  A    between atoms: _171  and  _172
REMARK   70  A    between atoms: _171  and  _174
REMARK   71  A    between atoms: _174  and  _175
REMARK   72  A    between atoms: _181  and  _183
REMARK   73  A    between atoms: _183  and  _184
REMARK   74  A    between atoms: _183  and  _186
REMARK   75  A    between atoms: _186  and  _187
REMARK   76  A    between atoms: _192  and  _193
REMARK   77  A    between atoms: _195  and  _197
REMARK   78  A    between atoms: _197  and  _198
REMARK   79  A    between atoms: _201  and  _203
REMARK   80  A    between atoms: _203  and  _204
REMARK   81  A    between atoms: _203  and  _206
REMARK   82  A    between atoms: _206  and  _207
REMARK   83  A    between atoms: _210  and  _212
REMARK   84  A    between atoms: _212  and  _213
REMARK   85  A    between atoms: _216  and  _218
REMARK   86  A    between atoms: _218  and  _219
REMARK   87  A    between atoms: _218  and  _221
REMARK   88  A    between atoms: _221  and  _222
REMARK   89  A    between atoms: _228  and  _230
REMARK   90  A    between atoms: _230  and  _231
REMARK   91  A    between atoms: _230  and  _233
REMARK   92  A    between atoms: _233  and  _234
REMARK   93  A    between atoms: _234  and  _235
REMARK   94  A    between atoms: _238  and  _240
REMARK   95  A    between atoms: _240  and  _241
REMARK   96  A    between atoms: _240  and  _243
REMARK   97  A    between atoms: _243  and  _244
REMARK   98  A    between atoms: _244  and  _245
REMARK   99  A    between atoms: _247  and  _249
REMARK  100  A    between atoms: _249  and  _250
REMARK  101  A    between atoms: _249  and  _252
REMARK  102  A    between atoms: _252  and  _253
REMARK  103  A    between atoms: _253  and  _254
REMARK  104  A    between atoms: _257  and  _259
REMARK  105  A    between atoms: _259  and  _260
REMARK  106  A    between atoms: _263  and  _265
REMARK  107  A    between atoms: _265  and  _266
REMARK  108  A    between atoms: _265  and  _268
REMARK  109  A    between atoms: _268  and  _269
REMARK  110  A    between atoms: _272  and  _274
REMARK  111  A    between atoms: _274  and  _275
REMARK  112  A    between atoms: _278  and  _280
REMARK  113  A    between atoms: _280  and  _281
REMARK  114  A    between atoms: _280  and  _283
REMARK  115  A    between atoms: _286  and  _288
REMARK  116  A    between atoms: _288  and  _289
REMARK  117  A    between atoms: _288  and  _291
REMARK  118  A    between atoms: _291  and  _292
REMARK  119  A    between atoms: _294  and  _296
REMARK  120  A    between atoms: _296  and  _297
REMARK  121  A    between atoms: _296  and  _299
REMARK  122  A    between atoms: _299  and  _300
REMARK  123  A    between atoms: _305  and  _307
REMARK  124  A    between atoms: _307  and  _308
REMARK  125  A    between atoms: _307  and  _310
REMARK  126  A    between atoms: _310  and  _311
REMARK  127  A    between atoms: _311  and  _312
REMARK  128  A    between atoms: _312  and  _313
REMARK  129  A    between atoms: _322  and  _324
REMARK  130  A    between atoms: _324  and  _325
REMARK  131  A    between atoms: _324  and  _327
REMARK  132  A    between atoms: _327  and  _328
REMARK  133  A    between atoms: _331  and  _333
REMARK  134  A    between atoms: _333  and  _334
REMARK  135  A    between atoms: _336  and  _338
REMARK  136  A    between atoms: _338  and  _339
REMARK  137  A    between atoms: _338  and  _341
REMARK  138  A    between atoms: _341  and  _342
REMARK  139  A    between atoms: _345  and  _347
REMARK  140  A    between atoms: _347  and  _348
REMARK  141  A    between atoms: _347  and  _350
REMARK  142  A    between atoms: _350  and  _351
REMARK  143  A    between atoms: _354  and  _356
REMARK  144  A    between atoms: _356  and  _357
REMARK  145  A    between atoms: _360  and  _362
REMARK  146  A    between atoms: _362  and  _363
REMARK  147  A    between atoms: _362  and  _365
REMARK  148  A    between atoms: _365  and  _366
REMARK  149  A    between atoms: _369  and  _371
REMARK  150  A    between atoms: _371  and  _372
REMARK  151  A    between atoms: _371  and  _374
REMARK  152  A    between atoms: _374  and  _375
REMARK  153  A    between atoms: _380  and  _382
REMARK  154  A    between atoms: _382  and  _383
REMARK  155  A    between atoms: _382  and  _385
REMARK  156  A    between atoms: _385  and  _386
REMARK  157  A    between atoms: _386  and  _387
REMARK  158  A    between atoms: _387  and  _388
REMARK  159  A    between atoms: _397  and  _399
REMARK  160  A    between atoms: _399  and  _400
REMARK  161  A    between atoms: _399  and  _402
REMARK  162  A    between atoms: _402  and  _403
REMARK  163  A    between atoms: _408  and  _410
REMARK  164  A    between atoms: _410  and  _411
REMARK  165  A    between atoms: _410  and  _413
REMARK  166  A    between atoms: _413  and  _414
REMARK  167  A    between atoms: _414  and  _415
REMARK  168  A    between atoms: _415  and  _416
REMARK  169  A    between atoms: _426  and  _427
REMARK  170  A    between atoms: _432  and  _434
REMARK  171  A    between atoms: _434  and  _435
REMARK  172  A    between atoms: _434  and  _437
REMARK  173  A    between atoms: _437  and  _438
REMARK  174  A    between atoms: _440  and  _442
REMARK  175  A    between atoms: _442  and  _443
REMARK  176  A    between atoms: _442  and  _445
REMARK  177  A    between atoms: _445  and  _446
REMARK  178  A    between atoms: _449  and  _451
REMARK  179  A    between atoms: _451  and  _452
REMARK  180  A    between atoms: _451  and  _454
REMARK  181  A    between atoms: _454  and  _455
REMARK  182  A    between atoms: _455  and  _456
REMARK  183  A    between atoms: _459  and  _461
REMARK  184  A    between atoms: _461  and  _462
REMARK  185  A    between atoms: _461  and  _464
REMARK  186  A    between atoms: _464  and  _465
REMARK  187  A    between atoms: _465  and  _466
REMARK                            x       y       z     vdW  Elec       q    Type
REMARK                         _______ _______ _______ _____ _____    ______ ____
ROOT
ATOM      1  CA  ARG A   2      -1.952 -78.057-155.425  0.00  0.00    +0.137 C 
ENDROOT
BRANCH   1   3
ATOM      2  C   HIS A   1      -4.319 -78.453-155.909  0.00  0.00    +0.239 C 
ATOM      3  N   ARG A   2      -3.336 -77.615-155.591  0.00  0.00    -0.298 N 
ATOM      4  H   ARG A   2      -3.560 -76.608-155.455  0.00  0.00    +0.150 HD
ATOM      5  O   HIS A   1      -4.148 -79.656-156.065  0.00  0.00    -0.274 OA
BRANCH   2   6
ATOM      6  CA  HIS A   1      -5.703 -77.841-156.081  0.00  0.00    +0.151 C 
BRANCH   6   7
ATOM      7  N   HIS A   1      -6.363 -78.409-157.249  0.00  0.00    -0.238 NA
ATOM      8  H   HIS A   1      -7.263 -78.915-157.123  0.00  0.00    +0.142 HD
ENDBRANCH   6   7
BRANCH   6   9
ATOM      9  CB  HIS A   1      -6.548 -78.094-154.834  0.00  0.00    +0.074 C 
BRANCH   9  10
ATOM     10  CG  HIS A   1      -5.997 -77.467-153.595  0.00  0.00    +0.082 A 
ATOM     11  ND1 HIS A   1      -5.118 -78.118-152.759  0.00  0.00    -0.227 NA
ATOM     12  CE1 HIS A   1      -4.789 -77.318-151.759  0.00  0.00    +0.199 A 
ATOM     13  NE2 HIS A   1      -5.423 -76.172-151.919  0.00  0.00    -0.221 NA
ATOM     14  CD2 HIS A   1      -6.186 -76.238-153.060  0.00  0.00    +0.115 A 
ENDBRANCH   9  10
ENDBRANCH   6   9
ENDBRANCH   2   6
ENDBRANCH   1   3
BRANCH   1  15
ATOM     15  C   ARG A   2      -1.379 -78.734-156.672  0.00  0.00    +0.227 C 
ATOM     16  O   ARG A   2      -0.443 -79.526-156.585  0.00  0.00    -0.286 OA
ENDBRANCH   1  15
BRANCH   1  17
ATOM     17  CB  ARG A   2      -1.817 -78.993-154.220  0.00  0.00    +0.031 C 
BRANCH  17  18
ATOM     18  CG  ARG A   2      -1.666 -78.273-152.882  0.00  0.00    +0.045 C 
BRANCH  18  19
ATOM     19  CD  ARG A   2      -1.405 -79.267-151.761  0.00  0.00    +0.174 C 
BRANCH  19  20
ATOM     20  NE  ARG A   2      -1.246 -78.646-150.446  0.00  0.00    -0.265 N 
ATOM     21  HE  ARG A   2      -2.071 -78.641-149.813  0.00  0.00    +0.259 HD
ATOM     22  CZ  ARG A   2      -0.123 -78.086-149.998  0.00  0.00    +0.342 C 
ATOM     23  NH2 ARG A   2      -0.082 -77.584-148.771  0.00  0.00    -0.292 N 
ATOM     24 HH21 ARG A   2      -0.924 -77.628-148.163  0.00  0.00    +0.255 HD
ATOM     25 HH22 ARG A   2       0.792 -77.146-148.417  0.00  0.00    +0.255 HD
ATOM     26  NH1 ARG A   2       0.966 -78.053-150.760  0.00  0.00    -0.292 N 
ATOM     27 HH11 ARG A   2       1.838 -77.614-150.402  0.00  0.00    +0.255 HD
ATOM     28 HH12 ARG A   2       0.946 -78.466-151.714  0.00  0.00    +0.255 HD
ENDBRANCH  19  20
ENDBRANCH  18  19
ENDBRANCH  17  18
ENDBRANCH   1  17
TORSDOF 10
REMARK  Name = ../refined-set-2016/1odi/1odi_pocket.pdb
REMARK  187 active torsions:
REMARK  status: ('A' for Active; 'I' for Inactive)
REMARK    1  A    between atoms: _2  and  _3
REMARK    2  A    between atoms: _8  and  _10
REMARK    3  A    between atoms: _10  and  _11
REMARK    4  A    between atoms: _13  and  _15
REMARK    5  A    between atoms: _15  and  _16
REMARK    6  A    between atoms: _15  and  _18
REMARK    7  A    between atoms: _18  and  _19
REMARK    8  A    between atoms: _22  and  _24
REMARK    9  A    between atoms: _24  and  _25
REMARK   10  A    between atoms: _24  and  _27
REMARK   11  A    between atoms: _27  and  _28
REMARK   12  A    between atoms: _28  and  _29
REMARK   13  A    between atoms: _29  and  _30
REMARK   14  A    between atoms: _39  and  _41
REMARK   15  A    between atoms: _41  and  _42
REMARK   16  A    between atoms: _41  and  _44
REMARK   17  A    between atoms: _44  and  _45
REMARK   18  A    between atoms: _48  and  _50
REMARK   19  A    between atoms: _50  and  _51
REMARK   20  A    between atoms: _53  and  _55
REMARK   21  A    between atoms: _55  and  _56
REMARK   22  A    between atoms: _55  and  _58
REMARK   23  A    between atoms: _58  and  _59
REMARK   24  A    between atoms: _59  and  _60
REMARK   25  A    between atoms: _62  and  _64
REMARK   26  A    between atoms: _64  and  _65
REMARK   27  A    between atoms: _67  and  _69
REMARK   28  A    between atoms: _69  and  _70
REMARK   29  A    between atoms: _69  and  _72
REMARK   30  A    between atoms: _72  and  _73
REMARK   31  A    between atoms: _76  and  _78
REMARK   32  A    between atoms: _78  and  _79
REMARK   33  A    between atoms: _78  and  _81
REMARK   34  A    between atoms: _81  and  _82
REMARK   35  A    between atoms: _82  and  _83
REMARK   36  A    between atoms: _83  and  _84
REMARK   37  A    between atoms: _93  and  _95
REMARK   38  A    between atoms: _95  and  _96
REMARK   39  A    between atoms: _98  and  _100
REMARK   40  A    between atoms: _100  and  _101
REMARK   41  A    between atoms: _100  and  _103
REMARK   42  A    between atoms: _103  and  _104
REMARK   43  A    between atoms: _107  and  _109
REMARK   44  A    between atoms: _109  and  _110
REMARK   45  A    between atoms: _113  and  _115
REMARK   46  A    between atoms: _115  and  _116
REMARK   47  A    between atoms: _118  and  _120
REMARK   48  A    between atoms: _120  and  _121
REMARK   49  A    between atoms: _124  and  _126
REMARK   50  A    between atoms: _126  and  _127
REMARK   51  A    between atoms: _130  and  _132
REMARK   52  A    between atoms: _132  and  _133
REMARK   53  A    between atoms: _136  and  _138
REMARK   54  A    between atoms: _138  and  _139
REMARK   55  A    between atoms: _138  and  _141
REMARK   56  A    between atoms: _141  and  _142
REMARK   57  A    between atoms: _144  and  _146
REMARK   58  A    between atoms: _146  and  _147
REMARK   59  A    between atoms: _146  and  _149
REMARK   60  A    between atoms: _149  and  _150
REMARK   61  A    between atoms: _150  and  _151
REMARK   62  A    between atoms: _154  and  _156
REMARK   63  A    between atoms: _156  and  _157
REMARK   64  A    between atoms: _156  and  _159
REMARK   65  A    between atoms: _159  and  _160
REMARK   66  A    between atoms: _163  and  _165
REMARK   67  A    between atoms: _165  and  _166
REMARK   68  A    between atoms: _169  and  _171
REMARK   69  A    between atoms: _171  and  _172
REMARK   70  A    between atoms: _171  and  _174
REMARK   71  A    between atoms: _174  and  _175
REMARK   72  A    between atoms: _181  and  _183
REMARK   73  A    between atoms: _183  and  _184
REMARK   74  A    between atoms: _183  and  _186
REMARK   75  A    between atoms: _186  and  _187
REMARK   76  A    between atoms: _192  and  _193
REMARK   77  A    between atoms: _195  and  _197
REMARK   78  A    between atoms: _197  and  _198
REMARK   79  A    between atoms: _201  and  _203
REMARK   80  A    between atoms: _203  and  _204
REMARK   81  A    between atoms: _203  and  _206
REMARK   82  A    between atoms: _206  and  _207
REMARK   83  A    between atoms: _210  and  _212
REMARK   84  A    between atoms: _212  and  _213
REMARK   85  A    between atoms: _216  and  _218
REMARK   86  A    between atoms: _218  and  _219
REMARK   87  A    between atoms: _218  and  _221
REMARK   88  A    between atoms: _221  and  _222
REMARK   89  A    between atoms: _228  and  _230
REMARK   90  A    between atoms: _230  and  _231
REMARK   91  A    between atoms: _230  and  _233
REMARK   92  A    between atoms: _233  and  _234
REMARK   93  A    between atoms: _234  and  _235
REMARK   94  A    between atoms: _238  and  _240
REMARK   95  A    between atoms: _240  and  _241
REMARK   96  A    between atoms: _240  and  _243
REMARK   97  A    between atoms: _243  and  _244
REMARK   98  A    between atoms: _244  and  _245
REMARK   99  A    between atoms: _247  and  _249
REMARK  100  A    between atoms: _249  and  _250
REMARK  101  A    between atoms: _249  and  _252
REMARK  102  A    between atoms: _252  and  _253
REMARK  103  A    between atoms: _253  and  _254
REMARK  104  A    between atoms: _257  and  _259
REMARK  105  A    between atoms: _259  and  _260
REMARK  106  A    between atoms: _263  and  _265
REMARK  107  A    between atoms: _265  and  _266
REMARK  108  A    between atoms: _265  and  _268
REMARK  109  A    between atoms: _268  and  _269
REMARK  110  A    between atoms: _272  and  _274
REMARK  111  A    between atoms: _274  and  _275
REMARK  112  A    between atoms: _278  and  _280
REMARK  113  A    between atoms: _280  and  _281
REMARK  114  A    between atoms: _280  and  _283
REMARK  115  A    between atoms: _286  and  _288
REMARK  116  A    between atoms: _288  and  _289
REMARK  117  A    between atoms: _288  and  _291
REMARK  118  A    between atoms: _291  and  _292
REMARK  119  A    between atoms: _294  and  _296
REMARK  120  A    between atoms: _296  and  _297
REMARK  121  A    between atoms: _296  and  _299
REMARK  122  A    between atoms: _299  and  _300
REMARK  123  A    between atoms: _305  and  _307
REMARK  124  A    between atoms: _307  and  _308
REMARK  125  A    between atoms: _307  and  _310
REMARK  126  A    between atoms: _310  and  _311
REMARK  127  A    between atoms: _311  and  _312
REMARK  128  A    between atoms: _312  and  _313
REMARK  129  A    between atoms: _322  and  _324
REMARK  130  A    between atoms: _324  and  _325
REMARK  131  A    between atoms: _324  and  _327
REMARK  132  A    between atoms: _327  and  _328
REMARK  133  A    between atoms: _331  and  _333
REMARK  134  A    between atoms: _333  and  _334
REMARK  135  A    between atoms: _336  and  _338
REMARK  136  A    between atoms: _338  and  _339
REMARK  137  A    between atoms: _338  and  _341
REMARK  138  A    between atoms: _341  and  _342
REMARK  139  A    between atoms: _345  and  _347
REMARK  140  A    between atoms: _347  and  _348
REMARK  141  A    between atoms: _347  and  _350
REMARK  142  A    between atoms: _350  and  _351
REMARK  143  A    between atoms: _354  and  _356
REMARK  144  A    between atoms: _356  and  _357
REMARK  145  A    between atoms: _360  and  _362
REMARK  146  A    between atoms: _362  and  _363
REMARK  147  A    between atoms: _362  and  _365
REMARK  148  A    between atoms: _365  and  _366
REMARK  149  A    between atoms: _369  and  _371
REMARK  150  A    between atoms: _371  and  _372
REMARK  151  A    between atoms: _371  and  _374
REMARK  152  A    between atoms: _374  and  _375
REMARK  153  A    between atoms: _380  and  _382
REMARK  154  A    between atoms: _382  and  _383
REMARK  155  A    between atoms: _382  and  _385
REMARK  156  A    between atoms: _385  and  _386
REMARK  157  A    between atoms: _386  and  _387
REMARK  158  A    between atoms: _387  and  _388
REMARK  159  A    between atoms: _397  and  _399
REMARK  160  A    between atoms: _399  and  _400
REMARK  161  A    between atoms: _399  and  _402
REMARK  162  A    between atoms: _402  and  _403
REMARK  163  A    between atoms: _408  and  _410
REMARK  164  A    between atoms: _410  and  _411
REMARK  165  A    between atoms: _410  and  _413
REMARK  166  A    between atoms: _413  and  _414
REMARK  167  A    between atoms: _414  and  _415
REMARK  168  A    between atoms: _415  and  _416
REMARK  169  A    between atoms: _426  and  _427
REMARK  170  A    between atoms: _432  and  _434
REMARK  171  A    between atoms: _434  and  _435
REMARK  172  A    between atoms: _434  and  _437
REMARK  173  A    between atoms: _437  and  _438
REMARK  174  A    between atoms: _440  and  _442
REMARK  175  A    between atoms: _442  and  _443
REMARK  176  A    between atoms: _442  and  _445
REMARK  177  A    between atoms: _445  and  _446
REMARK  178  A    between atoms: _449  and  _451
REMARK  179  A    between atoms: _451  and  _452
REMARK  180  A    between atoms: _451  and  _454
REMARK  181  A    between atoms: _454  and  _455
REMARK  182  A    between atoms: _455  and  _456
REMARK  183  A    between atoms: _459  and  _461
REMARK  184  A    between atoms: _461  and  _462
REMARK  185  A    between atoms: _461  and  _464
REMARK  186  A    between atoms: _464  and  _465
REMARK  187  A    between atoms: _465  and  _466
REMARK                            x       y       z     vdW  Elec       q    Type
REMARK                         _______ _______ _______ _____ _____    ______ ____
ROOT
ATOM      1  C   PRO A   1       4.031 -88.026-150.066  0.00  0.00    +0.239 C 
ATOM      2  O   PRO A   1       2.923 -88.041-149.520  0.00  0.00    -0.274 OA
ATOM      3  N   SER A   2       4.246 -87.504-151.268  0.00  0.00    -0.296 N 
ATOM      4  H   SER A   2       5.206 -87.541-151.665  0.00  0.00    +0.150 HD
ENDROOT
BRANCH   1   6
ATOM      5  N   PRO A   1       5.994 -89.457-150.356  0.00  0.00    -0.210 NA
ATOM      6  CA  PRO A   1       5.260 -88.629-149.396  0.00  0.00    +0.149 C 
ATOM      7  CB  PRO A   1       6.282 -87.564-149.008  0.00  0.00    +0.028 C 
ATOM      8  CG  PRO A   1       7.596 -88.295-149.129  0.00  0.00    +0.021 C 
ATOM      9  CD  PRO A   1       7.413 -89.053-150.424  0.00  0.00    +0.089 C 
ENDBRANCH   1   6
BRANCH   3  10
ATOM     10  CA  SER A   2       3.189 -86.883-152.049  0.00  0.00    +0.166 C 
BRANCH  10  11
ATOM     11  CB  SER A   2       2.167 -87.926-152.484  0.00  0.00    +0.229 C 
ATOM     12  OG  SER A   2       0.962 -87.734-152.314  0.00  0.00    -0.286 OA
ENDBRANCH  10  11
BRANCH  10  13
ATOM     13  C   SER A   2       3.796 -86.204-153.280  0.00  0.00    +0.165 C 
BRANCH  13  14
ATOM     14  O   SER A   2       2.806 -85.562-154.062  0.00  0.00    -0.380 OA
ATOM     15  H   SER A   2       2.144 -86.231-154.368  0.00  0.00    +0.211 HD
ENDBRANCH  13  14
ENDBRANCH  10  13
ENDBRANCH   3  10
TORSDOF 5
REMARK  Name = ../refined-set-2016/1odi/1odi_pocket.pdb
REMARK  187 active torsions:
REMARK  status: ('A' for Active; 'I' for Inactive)
REMARK    1  A    between atoms: _2  and  _3
REMARK    2  A    between atoms: _8  and  _10
REMARK    3  A    between atoms: _10  and  _11
REMARK    4  A    between atoms: _13  and  _15
REMARK    5  A    between atoms: _15  and  _16
REMARK    6  A    between atoms: _15  and  _18
REMARK    7  A    between atoms: _18  and  _19
REMARK    8  A    between atoms: _22  and  _24
REMARK    9  A    between atoms: _24  and  _25
REMARK   10  A    between atoms: _24  and  _27
REMARK   11  A    between atoms: _27  and  _28
REMARK   12  A    between atoms: _28  and  _29
REMARK   13  A    between atoms: _29  and  _30
REMARK   14  A    between atoms: _39  and  _41
REMARK   15  A    between atoms: _41  and  _42
REMARK   16  A    between atoms: _41  and  _44
REMARK   17  A    between atoms: _44  and  _45
REMARK   18  A    between atoms: _48  and  _50
REMARK   19  A    between atoms: _50  and  _51
REMARK   20  A    between atoms: _53  and  _55
REMARK   21  A    between atoms: _55  and  _56
REMARK   22  A    between atoms: _55  and  _58
REMARK   23  A    between atoms: _58  and  _59
REMARK   24  A    between atoms: _59  and  _60
REMARK   25  A    between atoms: _62  and  _64
REMARK   26  A    between atoms: _64  and  _65
REMARK   27  A    between atoms: _67  and  _69
REMARK   28  A    between atoms: _69  and  _70
REMARK   29  A    between atoms: _69  and  _72
REMARK   30  A    between atoms: _72  and  _73
REMARK   31  A    between atoms: _76  and  _78
REMARK   32  A    between atoms: _78  and  _79
REMARK   33  A    between atoms: _78  and  _81
REMARK   34  A    between atoms: _81  and  _82
REMARK   35  A    between atoms: _82  and  _83
REMARK   36  A    between atoms: _83  and  _84
REMARK   37  A    between atoms: _93  and  _95
REMARK   38  A    between atoms: _95  and  _96
REMARK   39  A    between atoms: _98  and  _100
REMARK   40  A    between atoms: _100  and  _101
REMARK   41  A    between atoms: _100  and  _103
REMARK   42  A    between atoms: _103  and  _104
REMARK   43  A    between atoms: _107  and  _109
REMARK   44  A    between atoms: _109  and  _110
REMARK   45  A    between atoms: _113  and  _115
REMARK   46  A    between atoms: _115  and  _116
REMARK   47  A    between atoms: _118  and  _120
REMARK   48  A    between atoms: _120  and  _121
REMARK   49  A    between atoms: _124  and  _126
REMARK   50  A    between atoms: _126  and  _127
REMARK   51  A    between atoms: _130  and  _132
REMARK   52  A    between atoms: _132  and  _133
REMARK   53  A    between atoms: _136  and  _138
REMARK   54  A    between atoms: _138  and  _139
REMARK   55  A    between atoms: _138  and  _141
REMARK   56  A    between atoms: _141  and  _142
REMARK   57  A    between atoms: _144  and  _146
REMARK   58  A    between atoms: _146  and  _147
REMARK   59  A    between atoms: _146  and  _149
REMARK   60  A    between atoms: _149  and  _150
REMARK   61  A    between atoms: _150  and  _151
REMARK   62  A    between atoms: _154  and  _156
REMARK   63  A    between atoms: _156  and  _157
REMARK   64  A    between atoms: _156  and  _159
REMARK   65  A    between atoms: _159  and  _160
REMARK   66  A    between atoms: _163  and  _165
REMARK   67  A    between atoms: _165  and  _166
REMARK   68  A    between atoms: _169  and  _171
REMARK   69  A    between atoms: _171  and  _172
REMARK   70  A    between atoms: _171  and  _174
REMARK   71  A    between atoms: _174  and  _175
REMARK   72  A    between atoms: _181  and  _183
REMARK   73  A    between atoms: _183  and  _184
REMARK   74  A    between atoms: _183  and  _186
REMARK   75  A    between atoms: _186  and  _187
REMARK   76  A    between atoms: _192  and  _193
REMARK   77  A    between atoms: _195  and  _197
REMARK   78  A    between atoms: _197  and  _198
REMARK   79  A    between atoms: _201  and  _203
REMARK   80  A    between atoms: _203  and  _204
REMARK   81  A    between atoms: _203  and  _206
REMARK   82  A    between atoms: _206  and  _207
REMARK   83  A    between atoms: _210  and  _212
REMARK   84  A    between atoms: _212  and  _213
REMARK   85  A    between atoms: _216  and  _218
REMARK   86  A    between atoms: _218  and  _219
REMARK   87  A    between atoms: _218  and  _221
REMARK   88  A    between atoms: _221  and  _222
REMARK   89  A    between atoms: _228  and  _230
REMARK   90  A    between atoms: _230  and  _231
REMARK   91  A    between atoms: _230  and  _233
REMARK   92  A    between atoms: _233  and  _234
REMARK   93  A    between atoms: _234  and  _235
REMARK   94  A    between atoms: _238  and  _240
REMARK   95  A    between atoms: _240  and  _241
REMARK   96  A    between atoms: _240  and  _243
REMARK   97  A    between atoms: _243  and  _244
REMARK   98  A    between atoms: _244  and  _245
REMARK   99  A    between atoms: _247  and  _249
REMARK  100  A    between atoms: _249  and  _250
REMARK  101  A    between atoms: _249  and  _252
REMARK  102  A    between atoms: _252  and  _253
REMARK  103  A    between atoms: _253  and  _254
REMARK  104  A    between atoms: _257  and  _259
REMARK  105  A    between atoms: _259  and  _260
REMARK  106  A    between atoms: _263  and  _265
REMARK  107  A    between atoms: _265  and  _266
REMARK  108  A    between atoms: _265  and  _268
REMARK  109  A    between atoms: _268  and  _269
REMARK  110  A    between atoms: _272  and  _274
REMARK  111  A    between atoms: _274  and  _275
REMARK  112  A    between atoms: _278  and  _280
REMARK  113  A    between atoms: _280  and  _281
REMARK  114  A    between atoms: _280  and  _283
REMARK  115  A    between atoms: _286  and  _288
REMARK  116  A    between atoms: _288  and  _289
REMARK  117  A    between atoms: _288  and  _291
REMARK  118  A    between atoms: _291  and  _292
REMARK  119  A    between atoms: _294  and  _296
REMARK  120  A    between atoms: _296  and  _297
REMARK  121  A    between atoms: _296  and  _299
REMARK  122  A    between atoms: _299  and  _300
REMARK  123  A    between atoms: _305  and  _307
REMARK  124  A    between atoms: _307  and  _308
REMARK  125  A    between atoms: _307  and  _310
REMARK  126  A    between atoms: _310  and  _311
REMARK  127  A    between atoms: _311  and  _312
REMARK  128  A    between atoms: _312  and  _313
REMARK  129  A    between atoms: _322  and  _324
REMARK  130  A    between atoms: _324  and  _325
REMARK  131  A    between atoms: _324  and  _327
REMARK  132  A    between atoms: _327  and  _328
REMARK  133  A    between atoms: _331  and  _333
REMARK  134  A    between atoms: _333  and  _334
REMARK  135  A    between atoms: _336  and  _338
REMARK  136  A    between atoms: _338  and  _339
REMARK  137  A    between atoms: _338  and  _341
REMARK  138  A    between atoms: _341  and  _342
REMARK  139  A    between atoms: _345  and  _347
REMARK  140  A    between atoms: _347  and  _348
REMARK  141  A    between atoms: _347  and  _350
REMARK  142  A    between atoms: _350  and  _351
REMARK  143  A    between atoms: _354  and  _356
REMARK  144  A    between atoms: _356  and  _357
REMARK  145  A    between atoms: _360  and  _362
REMARK  146  A    between atoms: _362  and  _363
REMARK  147  A    between atoms: _362  and  _365
REMARK  148  A    between atoms: _365  and  _366
REMARK  149  A    between atoms: _369  and  _371
REMARK  150  A    between atoms: _371  and  _372
REMARK  151  A    between atoms: _371  and  _374
REMARK  152  A    between atoms: _374  and  _375
REMARK  153  A    between atoms: _380  and  _382
REMARK  154  A    between atoms: _382  and  _383
REMARK  155  A    between atoms: _382  and  _385
REMARK  156  A    between atoms: _385  and  _386
REMARK  157  A    between atoms: _386  and  _387
REMARK  158  A    between atoms: _387  and  _388
REMARK  159  A    between atoms: _397  and  _399
REMARK  160  A    between atoms: _399  and  _400
REMARK  161  A    between atoms: _399  and  _402
REMARK  162  A    between atoms: _402  and  _403
REMARK  163  A    between atoms: _408  and  _410
REMARK  164  A    between atoms: _410  and  _411
REMARK  165  A    between atoms: _410  and  _413
REMARK  166  A    between atoms: _413  and  _414
REMARK  167  A    between atoms: _414  and  _415
REMARK  168  A    between atoms: _415  and  _416
REMARK  169  A    between atoms: _426  and  _427
REMARK  170  A    between atoms: _432  and  _434
REMARK  171  A    between atoms: _434  and  _435
REMARK  172  A    between atoms: _434  and  _437
REMARK  173  A    between atoms: _437  and  _438
REMARK  174  A    between atoms: _440  and  _442
REMARK  175  A    between atoms: _442  and  _443
REMARK  176  A    between atoms: _442  and  _445
REMARK  177  A    between atoms: _445  and  _446
REMARK  178  A    between atoms: _449  and  _451
REMARK  179  A    between atoms: _451  and  _452
REMARK  180  A    between atoms: _451  and  _454
REMARK  181  A    between atoms: _454  and  _455
REMARK  182  A    between atoms: _455  and  _456
REMARK  183  A    between atoms: _459  and  _461
REMARK  184  A    between atoms: _461  and  _462
REMARK  185  A    between atoms: _461  and  _464
REMARK  186  A    between atoms: _464  and  _465
REMARK  187  A    between atoms: _465  and  _466
REMARK                            x       y       z     vdW  Elec       q    Type
REMARK                         _______ _______ _______ _____ _____    ______ ____
ROOT
ATOM      1  CA  ILE A   1      -1.299 -88.454-149.468  0.00  0.00    +0.133 C 
ENDROOT
BRANCH   1   2
ATOM      2  N   ILE A   1      -0.212 -89.359-149.784  0.00  0.00    -0.239 NA
ATOM      3  H   ILE A   1       0.724 -88.973-150.021  0.00  0.00    +0.142 HD
ENDBRANCH   1   2
BRANCH   1   4
ATOM      4  CB  ILE A   1      -0.829 -86.986-149.506  0.00  0.00    +0.023 C 
ATOM      5  CG2 ILE A   1      -2.011 -86.060-149.784  0.00  0.00    +0.002 C 
BRANCH   4   6
ATOM      6  CG1 ILE A   1      -0.139 -86.639-148.178  0.00  0.00    +0.002 C 
ATOM      7  CD1 ILE A   1       0.439 -85.248-148.129  0.00  0.00    +0.000 C 
ENDBRANCH   4   6
ENDBRANCH   1   4
BRANCH   1   8
ATOM      8  C   ILE A   1      -2.445 -88.650-150.445  0.00  0.00    +0.224 C 
ATOM      9  O   ILE A   1      -3.589 -88.831-150.035  0.00  0.00    -0.287 OA
ENDBRANCH   1   8
TORSDOF 4
REMARK  Name = ../refined-set-2016/1odi/1odi_pocket.pdb
REMARK  187 active torsions:
REMARK  status: ('A' for Active; 'I' for Inactive)
REMARK    1  A    between atoms: _2  and  _3
REMARK    2  A    between atoms: _8  and  _10
REMARK    3  A    between atoms: _10  and  _11
REMARK    4  A    between atoms: _13  and  _15
REMARK    5  A    between atoms: _15  and  _16
REMARK    6  A    between atoms: _15  and  _18
REMARK    7  A    between atoms: _18  and  _19
REMARK    8  A    between atoms: _22  and  _24
REMARK    9  A    between atoms: _24  and  _25
REMARK   10  A    between atoms: _24  and  _27
REMARK   11  A    between atoms: _27  and  _28
REMARK   12  A    between atoms: _28  and  _29
REMARK   13  A    between atoms: _29  and  _30
REMARK   14  A    between atoms: _39  and  _41
REMARK   15  A    between atoms: _41  and  _42
REMARK   16  A    between atoms: _41  and  _44
REMARK   17  A    between atoms: _44  and  _45
REMARK   18  A    between atoms: _48  and  _50
REMARK   19  A    between atoms: _50  and  _51
REMARK   20  A    between atoms: _53  and  _55
REMARK   21  A    between atoms: _55  and  _56
REMARK   22  A    between atoms: _55  and  _58
REMARK   23  A    between atoms: _58  and  _59
REMARK   24  A    between atoms: _59  and  _60
REMARK   25  A    between atoms: _62  and  _64
REMARK   26  A    between atoms: _64  and  _65
REMARK   27  A    between atoms: _67  and  _69
REMARK   28  A    between atoms: _69  and  _70
REMARK   29  A    between atoms: _69  and  _72
REMARK   30  A    between atoms: _72  and  _73
REMARK   31  A    between atoms: _76  and  _78
REMARK   32  A    between atoms: _78  and  _79
REMARK   33  A    between atoms: _78  and  _81
REMARK   34  A    between atoms: _81  and  _82
REMARK   35  A    between atoms: _82  and  _83
REMARK   36  A    between atoms: _83  and  _84
REMARK   37  A    between atoms: _93  and  _95
REMARK   38  A    between atoms: _95  and  _96
REMARK   39  A    between atoms: _98  and  _100
REMARK   40  A    between atoms: _100  and  _101
REMARK   41  A    between atoms: _100  and  _103
REMARK   42  A    between atoms: _103  and  _104
REMARK   43  A    between atoms: _107  and  _109
REMARK   44  A    between atoms: _109  and  _110
REMARK   45  A    between atoms: _113  and  _115
REMARK   46  A    between atoms: _115  and  _116
REMARK   47  A    between atoms: _118  and  _120
REMARK   48  A    between atoms: _120  and  _121
REMARK   49  A    between atoms: _124  and  _126
REMARK   50  A    between atoms: _126  and  _127
REMARK   51  A    between atoms: _130  and  _132
REMARK   52  A    between atoms: _132  and  _133
REMARK   53  A    between atoms: _136  and  _138
REMARK   54  A    between atoms: _138  and  _139
REMARK   55  A    between atoms: _138  and  _141
REMARK   56  A    between atoms: _141  and  _142
REMARK   57  A    between atoms: _144  and  _146
REMARK   58  A    between atoms: _146  and  _147
REMARK   59  A    between atoms: _146  and  _149
REMARK   60  A    between atoms: _149  and  _150
REMARK   61  A    between atoms: _150  and  _151
REMARK   62  A    between atoms: _154  and  _156
REMARK   63  A    between atoms: _156  and  _157
REMARK   64  A    between atoms: _156  and  _159
REMARK   65  A    between atoms: _159  and  _160
REMARK   66  A    between atoms: _163  and  _165
REMARK   67  A    between atoms: _165  and  _166
REMARK   68  A    between atoms: _169  and  _171
REMARK   69  A    between atoms: _171  and  _172
REMARK   70  A    between atoms: _171  and  _174
REMARK   71  A    between atoms: _174  and  _175
REMARK   72  A    between atoms: _181  and  _183
REMARK   73  A    between atoms: _183  and  _184
REMARK   74  A    between atoms: _183  and  _186
REMARK   75  A    between atoms: _186  and  _187
REMARK   76  A    between atoms: _192  and  _193
REMARK   77  A    between atoms: _195  and  _197
REMARK   78  A    between atoms: _197  and  _198
REMARK   79  A    between atoms: _201  and  _203
REMARK   80  A    between atoms: _203  and  _204
REMARK   81  A    between atoms: _203  and  _206
REMARK   82  A    between atoms: _206  and  _207
REMARK   83  A    between atoms: _210  and  _212
REMARK   84  A    between atoms: _212  and  _213
REMARK   85  A    between atoms: _216  and  _218
REMARK   86  A    between atoms: _218  and  _219
REMARK   87  A    between atoms: _218  and  _221
REMARK   88  A    between atoms: _221  and  _222
REMARK   89  A    between atoms: _228  and  _230
REMARK   90  A    between atoms: _230  and  _231
REMARK   91  A    between atoms: _230  and  _233
REMARK   92  A    between atoms: _233  and  _234
REMARK   93  A    between atoms: _234  and  _235
REMARK   94  A    between atoms: _238  and  _240
REMARK   95  A    between atoms: _240  and  _241
REMARK   96  A    between atoms: _240  and  _243
REMARK   97  A    between atoms: _243  and  _244
REMARK   98  A    between atoms: _244  and  _245
REMARK   99  A    between atoms: _247  and  _249
REMARK  100  A    between atoms: _249  and  _250
REMARK  101  A    between atoms: _249  and  _252
REMARK  102  A    between atoms: _252  and  _253
REMARK  103  A    between atoms: _253  and  _254
REMARK  104  A    between atoms: _257  and  _259
REMARK  105  A    between atoms: _259  and  _260
REMARK  106  A    between atoms: _263  and  _265
REMARK  107  A    between atoms: _265  and  _266
REMARK  108  A    between atoms: _265  and  _268
REMARK  109  A    between atoms: _268  and  _269
REMARK  110  A    between atoms: _272  and  _274
REMARK  111  A    between atoms: _274  and  _275
REMARK  112  A    between atoms: _278  and  _280
REMARK  113  A    between atoms: _280  and  _281
REMARK  114  A    between atoms: _280  and  _283
REMARK  115  A    between atoms: _286  and  _288
REMARK  116  A    between atoms: _288  and  _289
REMARK  117  A    between atoms: _288  and  _291
REMARK  118  A    between atoms: _291  and  _292
REMARK  119  A    between atoms: _294  and  _296
REMARK  120  A    between atoms: _296  and  _297
REMARK  121  A    between atoms: _296  and  _299
REMARK  122  A    between atoms: _299  and  _300
REMARK  123  A    between atoms: _305  and  _307
REMARK  124  A    between atoms: _307  and  _308
REMARK  125  A    between atoms: _307  and  _310
REMARK  126  A    between atoms: _310  and  _311
REMARK  127  A    between atoms: _311  and  _312
REMARK  128  A    between atoms: _312  and  _313
REMARK  129  A    between atoms: _322  and  _324
REMARK  130  A    between atoms: _324  and  _325
REMARK  131  A    between atoms: _324  and  _327
REMARK  132  A    between atoms: _327  and  _328
REMARK  133  A    between atoms: _331  and  _333
REMARK  134  A    between atoms: _333  and  _334
REMARK  135  A    between atoms: _336  and  _338
REMARK  136  A    between atoms: _338  and  _339
REMARK  137  A    between atoms: _338  and  _341
REMARK  138  A    between atoms: _341  and  _342
REMARK  139  A    between atoms: _345  and  _347
REMARK  140  A    between atoms: _347  and  _348
REMARK  141  A    between atoms: _347  and  _350
REMARK  142  A    between atoms: _350  and  _351
REMARK  143  A    between atoms: _354  and  _356
REMARK  144  A    between atoms: _356  and  _357
REMARK  145  A    between atoms: _360  and  _362
REMARK  146  A    between atoms: _362  and  _363
REMARK  147  A    between atoms: _362  and  _365
REMARK  148  A    between atoms: _365  and  _366
REMARK  149  A    between atoms: _369  and  _371
REMARK  150  A    between atoms: _371  and  _372
REMARK  151  A    between atoms: _371  and  _374
REMARK  152  A    between atoms: _374  and  _375
REMARK  153  A    between atoms: _380  and  _382
REMARK  154  A    between atoms: _382  and  _383
REMARK  155  A    between atoms: _382  and  _385
REMARK  156  A    between atoms: _385  and  _386
REMARK  157  A    between atoms: _386  and  _387
REMARK  158  A    between atoms: _387  and  _388
REMARK  159  A    between atoms: _397  and  _399
REMARK  160  A    between atoms: _399  and  _400
REMARK  161  A    between atoms: _399  and  _402
REMARK  162  A    between atoms: _402  and  _403
REMARK  163  A    between atoms: _408  and  _410
REMARK  164  A    between atoms: _410  and  _411
REMARK  165  A    between atoms: _410  and  _413
REMARK  166  A    between atoms: _413  and  _414
REMARK  167  A    between atoms: _414  and  _415
REMARK  168  A    between atoms: _415  and  _416
REMARK  169  A    between atoms: _426  and  _427
REMARK  170  A    between atoms: _432  and  _434
REMARK  171  A    between atoms: _434  and  _435
REMARK  172  A    between atoms: _434  and  _437
REMARK  173  A    between atoms: _437  and  _438
REMARK  174  A    between atoms: _440  and  _442
REMARK  175  A    between atoms: _442  and  _443
REMARK  176  A    between atoms: _442  and  _445
REMARK  177  A    between atoms: _445  and  _446
REMARK  178  A    between atoms: _449  and  _451
REMARK  179  A    between atoms: _451  and  _452
REMARK  180  A    between atoms: _451  and  _454
REMARK  181  A    between atoms: _454  and  _455
REMARK  182  A    between atoms: _455  and  _456
REMARK  183  A    between atoms: _459  and  _461
REMARK  184  A    between atoms: _461  and  _462
REMARK  185  A    between atoms: _461  and  _464
REMARK  186  A    between atoms: _464  and  _465
REMARK  187  A    between atoms: _465  and  _466
REMARK                            x       y       z     vdW  Elec       q    Type
REMARK                         _______ _______ _______ _____ _____    ______ ____
ROOT
ATOM      1  CA  GLU A   1      -7.477 -89.555-149.942  0.00  0.00    +0.134 C 
ENDROOT
BRANCH   1   2
ATOM      2  N   GLU A   1      -6.296 -90.361-149.638  0.00  0.00    -0.239 NA
ATOM      3  H   GLU A   1      -5.356 -90.010-149.911  0.00  0.00    +0.142 HD
ENDBRANCH   1   2
BRANCH   1   4
ATOM      4  C   GLU A   1      -8.309 -90.160-151.074  0.00  0.00    +0.224 C 
ATOM      5  O   GLU A   1      -9.532 -90.092-151.046  0.00  0.00    -0.287 OA
ENDBRANCH   1   4
BRANCH   1   6
ATOM      6  CB  GLU A   1      -7.069 -88.111-150.268  0.00  0.00    +0.037 C 
BRANCH   6   7
ATOM      7  CG  GLU A   1      -6.163 -87.486-149.198  0.00  0.00    +0.116 C 
BRANCH   7   8
ATOM      8  CD  GLU A   1      -5.997 -85.976-149.322  0.00  0.00    +0.365 C 
ATOM      9  OE2 GLU A   1      -5.714 -85.340-148.290  0.00  0.00    -0.246 OA
ATOM     10  OE1 GLU A   1      -6.126 -85.425-150.436  0.00  0.00    -0.246 OA
ENDBRANCH   7   8
ENDBRANCH   6   7
ENDBRANCH   1   6
TORSDOF 5
REMARK  Name = ../refined-set-2016/1odi/1odi_pocket.pdb
REMARK  187 active torsions:
REMARK  status: ('A' for Active; 'I' for Inactive)
REMARK    1  A    between atoms: _2  and  _3
REMARK    2  A    between atoms: _8  and  _10
REMARK    3  A    between atoms: _10  and  _11
REMARK    4  A    between atoms: _13  and  _15
REMARK    5  A    between atoms: _15  and  _16
REMARK    6  A    between atoms: _15  and  _18
REMARK    7  A    between atoms: _18  and  _19
REMARK    8  A    between atoms: _22  and  _24
REMARK    9  A    between atoms: _24  and  _25
REMARK   10  A    between atoms: _24  and  _27
REMARK   11  A    between atoms: _27  and  _28
REMARK   12  A    between atoms: _28  and  _29
REMARK   13  A    between atoms: _29  and  _30
REMARK   14  A    between atoms: _39  and  _41
REMARK   15  A    between atoms: _41  and  _42
REMARK   16  A    between atoms: _41  and  _44
REMARK   17  A    between atoms: _44  and  _45
REMARK   18  A    between atoms: _48  and  _50
REMARK   19  A    between atoms: _50  and  _51
REMARK   20  A    between atoms: _53  and  _55
REMARK   21  A    between atoms: _55  and  _56
REMARK   22  A    between atoms: _55  and  _58
REMARK   23  A    between atoms: _58  and  _59
REMARK   24  A    between atoms: _59  and  _60
REMARK   25  A    between atoms: _62  and  _64
REMARK   26  A    between atoms: _64  and  _65
REMARK   27  A    between atoms: _67  and  _69
REMARK   28  A    between atoms: _69  and  _70
REMARK   29  A    between atoms: _69  and  _72
REMARK   30  A    between atoms: _72  and  _73
REMARK   31  A    between atoms: _76  and  _78
REMARK   32  A    between atoms: _78  and  _79
REMARK   33  A    between atoms: _78  and  _81
REMARK   34  A    between atoms: _81  and  _82
REMARK   35  A    between atoms: _82  and  _83
REMARK   36  A    between atoms: _83  and  _84
REMARK   37  A    between atoms: _93  and  _95
REMARK   38  A    between atoms: _95  and  _96
REMARK   39  A    between atoms: _98  and  _100
REMARK   40  A    between atoms: _100  and  _101
REMARK   41  A    between atoms: _100  and  _103
REMARK   42  A    between atoms: _103  and  _104
REMARK   43  A    between atoms: _107  and  _109
REMARK   44  A    between atoms: _109  and  _110
REMARK   45  A    between atoms: _113  and  _115
REMARK   46  A    between atoms: _115  and  _116
REMARK   47  A    between atoms: _118  and  _120
REMARK   48  A    between atoms: _120  and  _121
REMARK   49  A    between atoms: _124  and  _126
REMARK   50  A    between atoms: _126  and  _127
REMARK   51  A    between atoms: _130  and  _132
REMARK   52  A    between atoms: _132  and  _133
REMARK   53  A    between atoms: _136  and  _138
REMARK   54  A    between atoms: _138  and  _139
REMARK   55  A    between atoms: _138  and  _141
REMARK   56  A    between atoms: _141  and  _142
REMARK   57  A    between atoms: _144  and  _146
REMARK   58  A    between atoms: _146  and  _147
REMARK   59  A    between atoms: _146  and  _149
REMARK   60  A    between atoms: _149  and  _150
REMARK   61  A    between atoms: _150  and  _151
REMARK   62  A    between atoms: _154  and  _156
REMARK   63  A    between atoms: _156  and  _157
REMARK   64  A    between atoms: _156  and  _159
REMARK   65  A    between atoms: _159  and  _160
REMARK   66  A    between atoms: _163  and  _165
REMARK   67  A    between atoms: _165  and  _166
REMARK   68  A    between atoms: _169  and  _171
REMARK   69  A    between atoms: _171  and  _172
REMARK   70  A    between atoms: _171  and  _174
REMARK   71  A    between atoms: _174  and  _175
REMARK   72  A    between atoms: _181  and  _183
REMARK   73  A    between atoms: _183  and  _184
REMARK   74  A    between atoms: _183  and  _186
REMARK   75  A    between atoms: _186  and  _187
REMARK   76  A    between atoms: _192  and  _193
REMARK   77  A    between atoms: _195  and  _197
REMARK   78  A    between atoms: _197  and  _198
REMARK   79  A    between atoms: _201  and  _203
REMARK   80  A    between atoms: _203  and  _204
REMARK   81  A    between atoms: _203  and  _206
REMARK   82  A    between atoms: _206  and  _207
REMARK   83  A    between atoms: _210  and  _212
REMARK   84  A    between atoms: _212  and  _213
REMARK   85  A    between atoms: _216  and  _218
REMARK   86  A    between atoms: _218  and  _219
REMARK   87  A    between atoms: _218  and  _221
REMARK   88  A    between atoms: _221  and  _222
REMARK   89  A    between atoms: _228  and  _230
REMARK   90  A    between atoms: _230  and  _231
REMARK   91  A    between atoms: _230  and  _233
REMARK   92  A    between atoms: _233  and  _234
REMARK   93  A    between atoms: _234  and  _235
REMARK   94  A    between atoms: _238  and  _240
REMARK   95  A    between atoms: _240  and  _241
REMARK   96  A    between atoms: _240  and  _243
REMARK   97  A    between atoms: _243  and  _244
REMARK   98  A    between atoms: _244  and  _245
REMARK   99  A    between atoms: _247  and  _249
REMARK  100  A    between atoms: _249  and  _250
REMARK  101  A    between atoms: _249  and  _252
REMARK  102  A    between atoms: _252  and  _253
REMARK  103  A    between atoms: _253  and  _254
REMARK  104  A    between atoms: _257  and  _259
REMARK  105  A    between atoms: _259  and  _260
REMARK  106  A    between atoms: _263  and  _265
REMARK  107  A    between atoms: _265  and  _266
REMARK  108  A    between atoms: _265  and  _268
REMARK  109  A    between atoms: _268  and  _269
REMARK  110  A    between atoms: _272  and  _274
REMARK  111  A    between atoms: _274  and  _275
REMARK  112  A    between atoms: _278  and  _280
REMARK  113  A    between atoms: _280  and  _281
REMARK  114  A    between atoms: _280  and  _283
REMARK  115  A    between atoms: _286  and  _288
REMARK  116  A    between atoms: _288  and  _289
REMARK  117  A    between atoms: _288  and  _291
REMARK  118  A    between atoms: _291  and  _292
REMARK  119  A    between atoms: _294  and  _296
REMARK  120  A    between atoms: _296  and  _297
REMARK  121  A    between atoms: _296  and  _299
REMARK  122  A    between atoms: _299  and  _300
REMARK  123  A    between atoms: _305  and  _307
REMARK  124  A    between atoms: _307  and  _308
REMARK  125  A    between atoms: _307  and  _310
REMARK  126  A    between atoms: _310  and  _311
REMARK  127  A    between atoms: _311  and  _312
REMARK  128  A    between atoms: _312  and  _313
REMARK  129  A    between atoms: _322  and  _324
REMARK  130  A    between atoms: _324  and  _325
REMARK  131  A    between atoms: _324  and  _327
REMARK  132  A    between atoms: _327  and  _328
REMARK  133  A    between atoms: _331  and  _333
REMARK  134  A    between atoms: _333  and  _334
REMARK  135  A    between atoms: _336  and  _338
REMARK  136  A    between atoms: _338  and  _339
REMARK  137  A    between atoms: _338  and  _341
REMARK  138  A    between atoms: _341  and  _342
REMARK  139  A    between atoms: _345  and  _347
REMARK  140  A    between atoms: _347  and  _348
REMARK  141  A    between atoms: _347  and  _350
REMARK  142  A    between atoms: _350  and  _351
REMARK  143  A    between atoms: _354  and  _356
REMARK  144  A    between atoms: _356  and  _357
REMARK  145  A    between atoms: _360  and  _362
REMARK  146  A    between atoms: _362  and  _363
REMARK  147  A    between atoms: _362  and  _365
REMARK  148  A    between atoms: _365  and  _366
REMARK  149  A    between atoms: _369  and  _371
REMARK  150  A    between atoms: _371  and  _372
REMARK  151  A    between atoms: _371  and  _374
REMARK  152  A    between atoms: _374  and  _375
REMARK  153  A    between atoms: _380  and  _382
REMARK  154  A    between atoms: _382  and  _383
REMARK  155  A    between atoms: _382  and  _385
REMARK  156  A    between atoms: _385  and  _386
REMARK  157  A    between atoms: _386  and  _387
REMARK  158  A    between atoms: _387  and  _388
REMARK  159  A    between atoms: _397  and  _399
REMARK  160  A    between atoms: _399  and  _400
REMARK  161  A    between atoms: _399  and  _402
REMARK  162  A    between atoms: _402  and  _403
REMARK  163  A    between atoms: _408  and  _410
REMARK  164  A    between atoms: _410  and  _411
REMARK  165  A    between atoms: _410  and  _413
REMARK  166  A    between atoms: _413  and  _414
REMARK  167  A    between atoms: _414  and  _415
REMARK  168  A    between atoms: _415  and  _416
REMARK  169  A    between atoms: _426  and  _427
REMARK  170  A    between atoms: _432  and  _434
REMARK  171  A    between atoms: _434  and  _435
REMARK  172  A    between atoms: _434  and  _437
REMARK  173  A    between atoms: _437  and  _438
REMARK  174  A    between atoms: _440  and  _442
REMARK  175  A    between atoms: _442  and  _443
REMARK  176  A    between atoms: _442  and  _445
REMARK  177  A    between atoms: _445  and  _446
REMARK  178  A    between atoms: _449  and  _451
REMARK  179  A    between atoms: _451  and  _452
REMARK  180  A    between atoms: _451  and  _454
REMARK  181  A    between atoms: _454  and  _455
REMARK  182  A    between atoms: _455  and  _456
REMARK  183  A    between atoms: _459  and  _461
REMARK  184  A    between atoms: _461  and  _462
REMARK  185  A    between atoms: _461  and  _464
REMARK  186  A    between atoms: _464  and  _465
REMARK  187  A    between atoms: _465  and  _466
REMARK                            x       y       z     vdW  Elec       q    Type
REMARK                         _______ _______ _______ _____ _____    ______ ____
ROOT
ATOM      1  CB  GLN A   1       6.728 -92.860-141.462  0.00  0.00    +0.035 C 
ENDROOT
BRANCH   1   2
ATOM      2  CA  GLN A   1       6.997 -94.329-141.163  0.00  0.00    +0.134 C 
BRANCH   2   3
ATOM      3  N   GLN A   1       7.748 -94.949-142.251  0.00  0.00    -0.239 NA
ATOM      4  H   GLN A   1       7.761 -94.510-143.194  0.00  0.00    +0.142 HD
ENDBRANCH   2   3
BRANCH   2   5
ATOM      5  C   GLN A   1       5.673 -95.056-140.903  0.00  0.00    +0.224 C 
ATOM      6  O   GLN A   1       5.209 -95.127-139.767  0.00  0.00    -0.287 OA
ENDBRANCH   2   5
ENDBRANCH   1   2
BRANCH   1   7
ATOM      7  CG  GLN A   1       6.157 -92.111-140.275  0.00  0.00    +0.087 C 
BRANCH   7   8
ATOM      8  CD  GLN A   1       5.761 -90.691-140.619  0.00  0.00    +0.219 C 
ATOM      9  NE2 GLN A   1       4.584 -90.282-140.159  0.00  0.00    -0.329 N 
ATOM     10 HE21 GLN A   1       3.990 -90.929-139.603  0.00  0.00    +0.145 HD
ATOM     11 HE22 GLN A   1       4.257 -89.314-140.355  0.00  0.00    +0.145 HD
ATOM     12  OE1 GLN A   1       6.507 -89.966-141.284  0.00  0.00    -0.275 OA
ENDBRANCH   7   8
ENDBRANCH   1   7
TORSDOF 5
REMARK  Name = ../refined-set-2016/1odi/1odi_pocket.pdb
REMARK  187 active torsions:
REMARK  status: ('A' for Active; 'I' for Inactive)
REMARK    1  A    between atoms: _2  and  _3
REMARK    2  A    between atoms: _8  and  _10
REMARK    3  A    between atoms: _10  and  _11
REMARK    4  A    between atoms: _13  and  _15
REMARK    5  A    between atoms: _15  and  _16
REMARK    6  A    between atoms: _15  and  _18
REMARK    7  A    between atoms: _18  and  _19
REMARK    8  A    between atoms: _22  and  _24
REMARK    9  A    between atoms: _24  and  _25
REMARK   10  A    between atoms: _24  and  _27
REMARK   11  A    between atoms: _27  and  _28
REMARK   12  A    between atoms: _28  and  _29
REMARK   13  A    between atoms: _29  and  _30
REMARK   14  A    between atoms: _39  and  _41
REMARK   15  A    between atoms: _41  and  _42
REMARK   16  A    between atoms: _41  and  _44
REMARK   17  A    between atoms: _44  and  _45
REMARK   18  A    between atoms: _48  and  _50
REMARK   19  A    between atoms: _50  and  _51
REMARK   20  A    between atoms: _53  and  _55
REMARK   21  A    between atoms: _55  and  _56
REMARK   22  A    between atoms: _55  and  _58
REMARK   23  A    between atoms: _58  and  _59
REMARK   24  A    between atoms: _59  and  _60
REMARK   25  A    between atoms: _62  and  _64
REMARK   26  A    between atoms: _64  and  _65
REMARK   27  A    between atoms: _67  and  _69
REMARK   28  A    between atoms: _69  and  _70
REMARK   29  A    between atoms: _69  and  _72
REMARK   30  A    between atoms: _72  and  _73
REMARK   31  A    between atoms: _76  and  _78
REMARK   32  A    between atoms: _78  and  _79
REMARK   33  A    between atoms: _78  and  _81
REMARK   34  A    between atoms: _81  and  _82
REMARK   35  A    between atoms: _82  and  _83
REMARK   36  A    between atoms: _83  and  _84
REMARK   37  A    between atoms: _93  and  _95
REMARK   38  A    between atoms: _95  and  _96
REMARK   39  A    between atoms: _98  and  _100
REMARK   40  A    between atoms: _100  and  _101
REMARK   41  A    between atoms: _100  and  _103
REMARK   42  A    between atoms: _103  and  _104
REMARK   43  A    between atoms: _107  and  _109
REMARK   44  A    between atoms: _109  and  _110
REMARK   45  A    between atoms: _113  and  _115
REMARK   46  A    between atoms: _115  and  _116
REMARK   47  A    between atoms: _118  and  _120
REMARK   48  A    between atoms: _120  and  _121
REMARK   49  A    between atoms: _124  and  _126
REMARK   50  A    between atoms: _126  and  _127
REMARK   51  A    between atoms: _130  and  _132
REMARK   52  A    between atoms: _132  and  _133
REMARK   53  A    between atoms: _136  and  _138
REMARK   54  A    between atoms: _138  and  _139
REMARK   55  A    between atoms: _138  and  _141
REMARK   56  A    between atoms: _141  and  _142
REMARK   57  A    between atoms: _144  and  _146
REMARK   58  A    between atoms: _146  and  _147
REMARK   59  A    between atoms: _146  and  _149
REMARK   60  A    between atoms: _149  and  _150
REMARK   61  A    between atoms: _150  and  _151
REMARK   62  A    between atoms: _154  and  _156
REMARK   63  A    between atoms: _156  and  _157
REMARK   64  A    between atoms: _156  and  _159
REMARK   65  A    between atoms: _159  and  _160
REMARK   66  A    between atoms: _163  and  _165
REMARK   67  A    between atoms: _165  and  _166
REMARK   68  A    between atoms: _169  and  _171
REMARK   69  A    between atoms: _171  and  _172
REMARK   70  A    between atoms: _171  and  _174
REMARK   71  A    between atoms: _174  and  _175
REMARK   72  A    between atoms: _181  and  _183
REMARK   73  A    between atoms: _183  and  _184
REMARK   74  A    between atoms: _183  and  _186
REMARK   75  A    between atoms: _186  and  _187
REMARK   76  A    between atoms: _192  and  _193
REMARK   77  A    between atoms: _195  and  _197
REMARK   78  A    between atoms: _197  and  _198
REMARK   79  A    between atoms: _201  and  _203
REMARK   80  A    between atoms: _203  and  _204
REMARK   81  A    between atoms: _203  and  _206
REMARK   82  A    between atoms: _206  and  _207
REMARK   83  A    between atoms: _210  and  _212
REMARK   84  A    between atoms: _212  and  _213
REMARK   85  A    between atoms: _216  and  _218
REMARK   86  A    between atoms: _218  and  _219
REMARK   87  A    between atoms: _218  and  _221
REMARK   88  A    between atoms: _221  and  _222
REMARK   89  A    between atoms: _228  and  _230
REMARK   90  A    between atoms: _230  and  _231
REMARK   91  A    between atoms: _230  and  _233
REMARK   92  A    between atoms: _233  and  _234
REMARK   93  A    between atoms: _234  and  _235
REMARK   94  A    between atoms: _238  and  _240
REMARK   95  A    between atoms: _240  and  _241
REMARK   96  A    between atoms: _240  and  _243
REMARK   97  A    between atoms: _243  and  _244
REMARK   98  A    between atoms: _244  and  _245
REMARK   99  A    between atoms: _247  and  _249
REMARK  100  A    between atoms: _249  and  _250
REMARK  101  A    between atoms: _249  and  _252
REMARK  102  A    between atoms: _252  and  _253
REMARK  103  A    between atoms: _253  and  _254
REMARK  104  A    between atoms: _257  and  _259
REMARK  105  A    between atoms: _259  and  _260
REMARK  106  A    between atoms: _263  and  _265
REMARK  107  A    between atoms: _265  and  _266
REMARK  108  A    between atoms: _265  and  _268
REMARK  109  A    between atoms: _268  and  _269
REMARK  110  A    between atoms: _272  and  _274
REMARK  111  A    between atoms: _274  and  _275
REMARK  112  A    between atoms: _278  and  _280
REMARK  113  A    between atoms: _280  and  _281
REMARK  114  A    between atoms: _280  and  _283
REMARK  115  A    between atoms: _286  and  _288
REMARK  116  A    between atoms: _288  and  _289
REMARK  117  A    between atoms: _288  and  _291
REMARK  118  A    between atoms: _291  and  _292
REMARK  119  A    between atoms: _294  and  _296
REMARK  120  A    between atoms: _296  and  _297
REMARK  121  A    between atoms: _296  and  _299
REMARK  122  A    between atoms: _299  and  _300
REMARK  123  A    between atoms: _305  and  _307
REMARK  124  A    between atoms: _307  and  _308
REMARK  125  A    between atoms: _307  and  _310
REMARK  126  A    between atoms: _310  and  _311
REMARK  127  A    between atoms: _311  and  _312
REMARK  128  A    between atoms: _312  and  _313
REMARK  129  A    between atoms: _322  and  _324
REMARK  130  A    between atoms: _324  and  _325
REMARK  131  A    between atoms: _324  and  _327
REMARK  132  A    between atoms: _327  and  _328
REMARK  133  A    between atoms: _331  and  _333
REMARK  134  A    between atoms: _333  and  _334
REMARK  135  A    between atoms: _336  and  _338
REMARK  136  A    between atoms: _338  and  _339
REMARK  137  A    between atoms: _338  and  _341
REMARK  138  A    between atoms: _341  and  _342
REMARK  139  A    between atoms: _345  and  _347
REMARK  140  A    between atoms: _347  and  _348
REMARK  141  A    between atoms: _347  and  _350
REMARK  142  A    between atoms: _350  and  _351
REMARK  143  A    between atoms: _354  and  _356
REMARK  144  A    between atoms: _356  and  _357
REMARK  145  A    between atoms: _360  and  _362
REMARK  146  A    between atoms: _362  and  _363
REMARK  147  A    between atoms: _362  and  _365
REMARK  148  A    between atoms: _365  and  _366
REMARK  149  A    between atoms: _369  and  _371
REMARK  150  A    between atoms: _371  and  _372
REMARK  151  A    between atoms: _371  and  _374
REMARK  152  A    between atoms: _374  and  _375
REMARK  153  A    between atoms: _380  and  _382
REMARK  154  A    between atoms: _382  and  _383
REMARK  155  A    between atoms: _382  and  _385
REMARK  156  A    between atoms: _385  and  _386
REMARK  157  A    between atoms: _386  and  _387
REMARK  158  A    between atoms: _387  and  _388
REMARK  159  A    between atoms: _397  and  _399
REMARK  160  A    between atoms: _399  and  _400
REMARK  161  A    between atoms: _399  and  _402
REMARK  162  A    between atoms: _402  and  _403
REMARK  163  A    between atoms: _408  and  _410
REMARK  164  A    between atoms: _410  and  _411
REMARK  165  A    between atoms: _410  and  _413
REMARK  166  A    between atoms: _413  and  _414
REMARK  167  A    between atoms: _414  and  _415
REMARK  168  A    between atoms: _415  and  _416
REMARK  169  A    between atoms: _426  and  _427
REMARK  170  A    between atoms: _432  and  _434
REMARK  171  A    between atoms: _434  and  _435
REMARK  172  A    between atoms: _434  and  _437
REMARK  173  A    between atoms: _437  and  _438
REMARK  174  A    between atoms: _440  and  _442
REMARK  175  A    between atoms: _442  and  _443
REMARK  176  A    between atoms: _442  and  _445
REMARK  177  A    between atoms: _445  and  _446
REMARK  178  A    between atoms: _449  and  _451
REMARK  179  A    between atoms: _451  and  _452
REMARK  180  A    between atoms: _451  and  _454
REMARK  181  A    between atoms: _454  and  _455
REMARK  182  A    between atoms: _455  and  _456
REMARK  183  A    between atoms: _459  and  _461
REMARK  184  A    between atoms: _461  and  _462
REMARK  185  A    between atoms: _461  and  _464
REMARK  186  A    between atoms: _464  and  _465
REMARK  187  A    between atoms: _465  and  _466
REMARK                            x       y       z     vdW  Elec       q    Type
REMARK                         _______ _______ _______ _____ _____    ______ ____
ROOT
ATOM      1  O   HOH     1       1.831 -79.129-153.489  0.00  0.00    +0.000 OA
ENDROOT
TORSDOF 0
REMARK  Name = ../refined-set-2016/1odi/1odi_pocket.pdb
REMARK  187 active torsions:
REMARK  status: ('A' for Active; 'I' for Inactive)
REMARK    1  A    between atoms: _2  and  _3
REMARK    2  A    between atoms: _8  and  _10
REMARK    3  A    between atoms: _10  and  _11
REMARK    4  A    between atoms: _13  and  _15
REMARK    5  A    between atoms: _15  and  _16
REMARK    6  A    between atoms: _15  and  _18
REMARK    7  A    between atoms: _18  and  _19
REMARK    8  A    between atoms: _22  and  _24
REMARK    9  A    between atoms: _24  and  _25
REMARK   10  A    between atoms: _24  and  _27
REMARK   11  A    between atoms: _27  and  _28
REMARK   12  A    between atoms: _28  and  _29
REMARK   13  A    between atoms: _29  and  _30
REMARK   14  A    between atoms: _39  and  _41
REMARK   15  A    between atoms: _41  and  _42
REMARK   16  A    between atoms: _41  and  _44
REMARK   17  A    between atoms: _44  and  _45
REMARK   18  A    between atoms: _48  and  _50
REMARK   19  A    between atoms: _50  and  _51
REMARK   20  A    between atoms: _53  and  _55
REMARK   21  A    between atoms: _55  and  _56
REMARK   22  A    between atoms: _55  and  _58
REMARK   23  A    between atoms: _58  and  _59
REMARK   24  A    between atoms: _59  and  _60
REMARK   25  A    between atoms: _62  and  _64
REMARK   26  A    between atoms: _64  and  _65
REMARK   27  A    between atoms: _67  and  _69
REMARK   28  A    between atoms: _69  and  _70
REMARK   29  A    between atoms: _69  and  _72
REMARK   30  A    between atoms: _72  and  _73
REMARK   31  A    between atoms: _76  and  _78
REMARK   32  A    between atoms: _78  and  _79
REMARK   33  A    between atoms: _78  and  _81
REMARK   34  A    between atoms: _81  and  _82
REMARK   35  A    between atoms: _82  and  _83
REMARK   36  A    between atoms: _83  and  _84
REMARK   37  A    between atoms: _93  and  _95
REMARK   38  A    between atoms: _95  and  _96
REMARK   39  A    between atoms: _98  and  _100
REMARK   40  A    between atoms: _100  and  _101
REMARK   41  A    between atoms: _100  and  _103
REMARK   42  A    between atoms: _103  and  _104
REMARK   43  A    between atoms: _107  and  _109
REMARK   44  A    between atoms: _109  and  _110
REMARK   45  A    between atoms: _113  and  _115
REMARK   46  A    between atoms: _115  and  _116
REMARK   47  A    between atoms: _118  and  _120
REMARK   48  A    between atoms: _120  and  _121
REMARK   49  A    between atoms: _124  and  _126
REMARK   50  A    between atoms: _126  and  _127
REMARK   51  A    between atoms: _130  and  _132
REMARK   52  A    between atoms: _132  and  _133
REMARK   53  A    between atoms: _136  and  _138
REMARK   54  A    between atoms: _138  and  _139
REMARK   55  A    between atoms: _138  and  _141
REMARK   56  A    between atoms: _141  and  _142
REMARK   57  A    between atoms: _144  and  _146
REMARK   58  A    between atoms: _146  and  _147
REMARK   59  A    between atoms: _146  and  _149
REMARK   60  A    between atoms: _149  and  _150
REMARK   61  A    between atoms: _150  and  _151
REMARK   62  A    between atoms: _154  and  _156
REMARK   63  A    between atoms: _156  and  _157
REMARK   64  A    between atoms: _156  and  _159
REMARK   65  A    between atoms: _159  and  _160
REMARK   66  A    between atoms: _163  and  _165
REMARK   67  A    between atoms: _165  and  _166
REMARK   68  A    between atoms: _169  and  _171
REMARK   69  A    between atoms: _171  and  _172
REMARK   70  A    between atoms: _171  and  _174
REMARK   71  A    between atoms: _174  and  _175
REMARK   72  A    between atoms: _181  and  _183
REMARK   73  A    between atoms: _183  and  _184
REMARK   74  A    between atoms: _183  and  _186
REMARK   75  A    between atoms: _186  and  _187
REMARK   76  A    between atoms: _192  and  _193
REMARK   77  A    between atoms: _195  and  _197
REMARK   78  A    between atoms: _197  and  _198
REMARK   79  A    between atoms: _201  and  _203
REMARK   80  A    between atoms: _203  and  _204
REMARK   81  A    between atoms: _203  and  _206
REMARK   82  A    between atoms: _206  and  _207
REMARK   83  A    between atoms: _210  and  _212
REMARK   84  A    between atoms: _212  and  _213
REMARK   85  A    between atoms: _216  and  _218
REMARK   86  A    between atoms: _218  and  _219
REMARK   87  A    between atoms: _218  and  _221
REMARK   88  A    between atoms: _221  and  _222
REMARK   89  A    between atoms: _228  and  _230
REMARK   90  A    between atoms: _230  and  _231
REMARK   91  A    between atoms: _230  and  _233
REMARK   92  A    between atoms: _233  and  _234
REMARK   93  A    between atoms: _234  and  _235
REMARK   94  A    between atoms: _238  and  _240
REMARK   95  A    between atoms: _240  and  _241
REMARK   96  A    between atoms: _240  and  _243
REMARK   97  A    between atoms: _243  and  _244
REMARK   98  A    between atoms: _244  and  _245
REMARK   99  A    between atoms: _247  and  _249
REMARK  100  A    between atoms: _249  and  _250
REMARK  101  A    between atoms: _249  and  _252
REMARK  102  A    between atoms: _252  and  _253
REMARK  103  A    between atoms: _253  and  _254
REMARK  104  A    between atoms: _257  and  _259
REMARK  105  A    between atoms: _259  and  _260
REMARK  106  A    between atoms: _263  and  _265
REMARK  107  A    between atoms: _265  and  _266
REMARK  108  A    between atoms: _265  and  _268
REMARK  109  A    between atoms: _268  and  _269
REMARK  110  A    between atoms: _272  and  _274
REMARK  111  A    between atoms: _274  and  _275
REMARK  112  A    between atoms: _278  and  _280
REMARK  113  A    between atoms: _280  and  _281
REMARK  114  A    between atoms: _280  and  _283
REMARK  115  A    between atoms: _286  and  _288
REMARK  116  A    between atoms: _288  and  _289
REMARK  117  A    between atoms: _288  and  _291
REMARK  118  A    between atoms: _291  and  _292
REMARK  119  A    between atoms: _294  and  _296
REMARK  120  A    between atoms: _296  and  _297
REMARK  121  A    between atoms: _296  and  _299
REMARK  122  A    between atoms: _299  and  _300
REMARK  123  A    between atoms: _305  and  _307
REMARK  124  A    between atoms: _307  and  _308
REMARK  125  A    between atoms: _307  and  _310
REMARK  126  A    between atoms: _310  and  _311
REMARK  127  A    between atoms: _311  and  _312
REMARK  128  A    between atoms: _312  and  _313
REMARK  129  A    between atoms: _322  and  _324
REMARK  130  A    between atoms: _324  and  _325
REMARK  131  A    between atoms: _324  and  _327
REMARK  132  A    between atoms: _327  and  _328
REMARK  133  A    between atoms: _331  and  _333
REMARK  134  A    between atoms: _333  and  _334
REMARK  135  A    between atoms: _336  and  _338
REMARK  136  A    between atoms: _338  and  _339
REMARK  137  A    between atoms: _338  and  _341
REMARK  138  A    between atoms: _341  and  _342
REMARK  139  A    between atoms: _345  and  _347
REMARK  140  A    between atoms: _347  and  _348
REMARK  141  A    between atoms: _347  and  _350
REMARK  142  A    between atoms: _350  and  _351
REMARK  143  A    between atoms: _354  and  _356
REMARK  144  A    between atoms: _356  and  _357
REMARK  145  A    between atoms: _360  and  _362
REMARK  146  A    between atoms: _362  and  _363
REMARK  147  A    between atoms: _362  and  _365
REMARK  148  A    between atoms: _365  and  _366
REMARK  149  A    between atoms: _369  and  _371
REMARK  150  A    between atoms: _371  and  _372
REMARK  151  A    between atoms: _371  and  _374
REMARK  152  A    between atoms: _374  and  _375
REMARK  153  A    between atoms: _380  and  _382
REMARK  154  A    between atoms: _382  and  _383
REMARK  155  A    between atoms: _382  and  _385
REMARK  156  A    between atoms: _385  and  _386
REMARK  157  A    between atoms: _386  and  _387
REMARK  158  A    between atoms: _387  and  _388
REMARK  159  A    between atoms: _397  and  _399
REMARK  160  A    between atoms: _399  and  _400
REMARK  161  A    between atoms: _399  and  _402
REMARK  162  A    between atoms: _402  and  _403
REMARK  163  A    between atoms: _408  and  _410
REMARK  164  A    between atoms: _410  and  _411
REMARK  165  A    between atoms: _410  and  _413
REMARK  166  A    between atoms: _413  and  _414
REMARK  167  A    between atoms: _414  and  _415
REMARK  168  A    between atoms: _415  and  _416
REMARK  169  A    between atoms: _426  and  _427
REMARK  170  A    between atoms: _432  and  _434
REMARK  171  A    between atoms: _434  and  _435
REMARK  172  A    between atoms: _434  and  _437
REMARK  173  A    between atoms: _437  and  _438
REMARK  174  A    between atoms: _440  and  _442
REMARK  175  A    between atoms: _442  and  _443
REMARK  176  A    between atoms: _442  and  _445
REMARK  177  A    between atoms: _445  and  _446
REMARK  178  A    between atoms: _449  and  _451
REMARK  179  A    between atoms: _451  and  _452
REMARK  180  A    between atoms: _451  and  _454
REMARK  181  A    between atoms: _454  and  _455
REMARK  182  A    between atoms: _455  and  _456
REMARK  183  A    between atoms: _459  and  _461
REMARK  184  A    between atoms: _461  and  _462
REMARK  185  A    between atoms: _461  and  _464
REMARK  186  A    between atoms: _464  and  _465
REMARK  187  A    between atoms: _465  and  _466
REMARK                            x       y       z     vdW  Elec       q    Type
REMARK                         _______ _______ _______ _____ _____    ______ ____
ROOT
ATOM      1  O   HOH     1       8.549 -75.734-150.090  0.00  0.00    +0.000 OA
ENDROOT
TORSDOF 0
REMARK  Name = ../refined-set-2016/1odi/1odi_pocket.pdb
REMARK  187 active torsions:
REMARK  status: ('A' for Active; 'I' for Inactive)
REMARK    1  A    between atoms: _2  and  _3
REMARK    2  A    between atoms: _8  and  _10
REMARK    3  A    between atoms: _10  and  _11
REMARK    4  A    between atoms: _13  and  _15
REMARK    5  A    between atoms: _15  and  _16
REMARK    6  A    between atoms: _15  and  _18
REMARK    7  A    between atoms: _18  and  _19
REMARK    8  A    between atoms: _22  and  _24
REMARK    9  A    between atoms: _24  and  _25
REMARK   10  A    between atoms: _24  and  _27
REMARK   11  A    between atoms: _27  and  _28
REMARK   12  A    between atoms: _28  and  _29
REMARK   13  A    between atoms: _29  and  _30
REMARK   14  A    between atoms: _39  and  _41
REMARK   15  A    between atoms: _41  and  _42
REMARK   16  A    between atoms: _41  and  _44
REMARK   17  A    between atoms: _44  and  _45
REMARK   18  A    between atoms: _48  and  _50
REMARK   19  A    between atoms: _50  and  _51
REMARK   20  A    between atoms: _53  and  _55
REMARK   21  A    between atoms: _55  and  _56
REMARK   22  A    between atoms: _55  and  _58
REMARK   23  A    between atoms: _58  and  _59
REMARK   24  A    between atoms: _59  and  _60
REMARK   25  A    between atoms: _62  and  _64
REMARK   26  A    between atoms: _64  and  _65
REMARK   27  A    between atoms: _67  and  _69
REMARK   28  A    between atoms: _69  and  _70
REMARK   29  A    between atoms: _69  and  _72
REMARK   30  A    between atoms: _72  and  _73
REMARK   31  A    between atoms: _76  and  _78
REMARK   32  A    between atoms: _78  and  _79
REMARK   33  A    between atoms: _78  and  _81
REMARK   34  A    between atoms: _81  and  _82
REMARK   35  A    between atoms: _82  and  _83
REMARK   36  A    between atoms: _83  and  _84
REMARK   37  A    between atoms: _93  and  _95
REMARK   38  A    between atoms: _95  and  _96
REMARK   39  A    between atoms: _98  and  _100
REMARK   40  A    between atoms: _100  and  _101
REMARK   41  A    between atoms: _100  and  _103
REMARK   42  A    between atoms: _103  and  _104
REMARK   43  A    between atoms: _107  and  _109
REMARK   44  A    between atoms: _109  and  _110
REMARK   45  A    between atoms: _113  and  _115
REMARK   46  A    between atoms: _115  and  _116
REMARK   47  A    between atoms: _118  and  _120
REMARK   48  A    between atoms: _120  and  _121
REMARK   49  A    between atoms: _124  and  _126
REMARK   50  A    between atoms: _126  and  _127
REMARK   51  A    between atoms: _130  and  _132
REMARK   52  A    between atoms: _132  and  _133
REMARK   53  A    between atoms: _136  and  _138
REMARK   54  A    between atoms: _138  and  _139
REMARK   55  A    between atoms: _138  and  _141
REMARK   56  A    between atoms: _141  and  _142
REMARK   57  A    between atoms: _144  and  _146
REMARK   58  A    between atoms: _146  and  _147
REMARK   59  A    between atoms: _146  and  _149
REMARK   60  A    between atoms: _149  and  _150
REMARK   61  A    between atoms: _150  and  _151
REMARK   62  A    between atoms: _154  and  _156
REMARK   63  A    between atoms: _156  and  _157
REMARK   64  A    between atoms: _156  and  _159
REMARK   65  A    between atoms: _159  and  _160
REMARK   66  A    between atoms: _163  and  _165
REMARK   67  A    between atoms: _165  and  _166
REMARK   68  A    between atoms: _169  and  _171
REMARK   69  A    between atoms: _171  and  _172
REMARK   70  A    between atoms: _171  and  _174
REMARK   71  A    between atoms: _174  and  _175
REMARK   72  A    between atoms: _181  and  _183
REMARK   73  A    between atoms: _183  and  _184
REMARK   74  A    between atoms: _183  and  _186
REMARK   75  A    between atoms: _186  and  _187
REMARK   76  A    between atoms: _192  and  _193
REMARK   77  A    between atoms: _195  and  _197
REMARK   78  A    between atoms: _197  and  _198
REMARK   79  A    between atoms: _201  and  _203
REMARK   80  A    between atoms: _203  and  _204
REMARK   81  A    between atoms: _203  and  _206
REMARK   82  A    between atoms: _206  and  _207
REMARK   83  A    between atoms: _210  and  _212
REMARK   84  A    between atoms: _212  and  _213
REMARK   85  A    between atoms: _216  and  _218
REMARK   86  A    between atoms: _218  and  _219
REMARK   87  A    between atoms: _218  and  _221
REMARK   88  A    between atoms: _221  and  _222
REMARK   89  A    between atoms: _228  and  _230
REMARK   90  A    between atoms: _230  and  _231
REMARK   91  A    between atoms: _230  and  _233
REMARK   92  A    between atoms: _233  and  _234
REMARK   93  A    between atoms: _234  and  _235
REMARK   94  A    between atoms: _238  and  _240
REMARK   95  A    between atoms: _240  and  _241
REMARK   96  A    between atoms: _240  and  _243
REMARK   97  A    between atoms: _243  and  _244
REMARK   98  A    between atoms: _244  and  _245
REMARK   99  A    between atoms: _247  and  _249
REMARK  100  A    between atoms: _249  and  _250
REMARK  101  A    between atoms: _249  and  _252
REMARK  102  A    between atoms: _252  and  _253
REMARK  103  A    between atoms: _253  and  _254
REMARK  104  A    between atoms: _257  and  _259
REMARK  105  A    between atoms: _259  and  _260
REMARK  106  A    between atoms: _263  and  _265
REMARK  107  A    between atoms: _265  and  _266
REMARK  108  A    between atoms: _265  and  _268
REMARK  109  A    between atoms: _268  and  _269
REMARK  110  A    between atoms: _272  and  _274
REMARK  111  A    between atoms: _274  and  _275
REMARK  112  A    between atoms: _278  and  _280
REMARK  113  A    between atoms: _280  and  _281
REMARK  114  A    between atoms: _280  and  _283
REMARK  115  A    between atoms: _286  and  _288
REMARK  116  A    between atoms: _288  and  _289
REMARK  117  A    between atoms: _288  and  _291
REMARK  118  A    between atoms: _291  and  _292
REMARK  119  A    between atoms: _294  and  _296
REMARK  120  A    between atoms: _296  and  _297
REMARK  121  A    between atoms: _296  and  _299
REMARK  122  A    between atoms: _299  and  _300
REMARK  123  A    between atoms: _305  and  _307
REMARK  124  A    between atoms: _307  and  _308
REMARK  125  A    between atoms: _307  and  _310
REMARK  126  A    between atoms: _310  and  _311
REMARK  127  A    between atoms: _311  and  _312
REMARK  128  A    between atoms: _312  and  _313
REMARK  129  A    between atoms: _322  and  _324
REMARK  130  A    between atoms: _324  and  _325
REMARK  131  A    between atoms: _324  and  _327
REMARK  132  A    between atoms: _327  and  _328
REMARK  133  A    between atoms: _331  and  _333
REMARK  134  A    between atoms: _333  and  _334
REMARK  135  A    between atoms: _336  and  _338
REMARK  136  A    between atoms: _338  and  _339
REMARK  137  A    between atoms: _338  and  _341
REMARK  138  A    between atoms: _341  and  _342
REMARK  139  A    between atoms: _345  and  _347
REMARK  140  A    between atoms: _347  and  _348
REMARK  141  A    between atoms: _347  and  _350
REMARK  142  A    between atoms: _350  and  _351
REMARK  143  A    between atoms: _354  and  _356
REMARK  144  A    between atoms: _356  and  _357
REMARK  145  A    between atoms: _360  and  _362
REMARK  146  A    between atoms: _362  and  _363
REMARK  147  A    between atoms: _362  and  _365
REMARK  148  A    between atoms: _365  and  _366
REMARK  149  A    between atoms: _369  and  _371
REMARK  150  A    between atoms: _371  and  _372
REMARK  151  A    between atoms: _371  and  _374
REMARK  152  A    between atoms: _374  and  _375
REMARK  153  A    between atoms: _380  and  _382
REMARK  154  A    between atoms: _382  and  _383
REMARK  155  A    between atoms: _382  and  _385
REMARK  156  A    between atoms: _385  and  _386
REMARK  157  A    between atoms: _386  and  _387
REMARK  158  A    between atoms: _387  and  _388
REMARK  159  A    between atoms: _397  and  _399
REMARK  160  A    between atoms: _399  and  _400
REMARK  161  A    between atoms: _399  and  _402
REMARK  162  A    between atoms: _402  and  _403
REMARK  163  A    between atoms: _408  and  _410
REMARK  164  A    between atoms: _410  and  _411
REMARK  165  A    between atoms: _410  and  _413
REMARK  166  A    between atoms: _413  and  _414
REMARK  167  A    between atoms: _414  and  _415
REMARK  168  A    between atoms: _415  and  _416
REMARK  169  A    between atoms: _426  and  _427
REMARK  170  A    between atoms: _432  and  _434
REMARK  171  A    between atoms: _434  and  _435
REMARK  172  A    between atoms: _434  and  _437
REMARK  173  A    between atoms: _437  and  _438
REMARK  174  A    between atoms: _440  and  _442
REMARK  175  A    between atoms: _442  and  _443
REMARK  176  A    between atoms: _442  and  _445
REMARK  177  A    between atoms: _445  and  _446
REMARK  178  A    between atoms: _449  and  _451
REMARK  179  A    between atoms: _451  and  _452
REMARK  180  A    between atoms: _451  and  _454
REMARK  181  A    between atoms: _454  and  _455
REMARK  182  A    between atoms: _455  and  _456
REMARK  183  A    between atoms: _459  and  _461
REMARK  184  A    between atoms: _461  and  _462
REMARK  185  A    between atoms: _461  and  _464
REMARK  186  A    between atoms: _464  and  _465
REMARK  187  A    between atoms: _465  and  _466
REMARK                            x       y       z     vdW  Elec       q    Type
REMARK                         _______ _______ _______ _____ _____    ______ ____
ROOT
ATOM      1  O   HOH     1      -4.707 -85.885-140.065  0.00  0.00    +0.000 OA
ENDROOT
TORSDOF 0
REMARK  Name = ../refined-set-2016/1odi/1odi_pocket.pdb
REMARK  187 active torsions:
REMARK  status: ('A' for Active; 'I' for Inactive)
REMARK    1  A    between atoms: _2  and  _3
REMARK    2  A    between atoms: _8  and  _10
REMARK    3  A    between atoms: _10  and  _11
REMARK    4  A    between atoms: _13  and  _15
REMARK    5  A    between atoms: _15  and  _16
REMARK    6  A    between atoms: _15  and  _18
REMARK    7  A    between atoms: _18  and  _19
REMARK    8  A    between atoms: _22  and  _24
REMARK    9  A    between atoms: _24  and  _25
REMARK   10  A    between atoms: _24  and  _27
REMARK   11  A    between atoms: _27  and  _28
REMARK   12  A    between atoms: _28  and  _29
REMARK   13  A    between atoms: _29  and  _30
REMARK   14  A    between atoms: _39  and  _41
REMARK   15  A    between atoms: _41  and  _42
REMARK   16  A    between atoms: _41  and  _44
REMARK   17  A    between atoms: _44  and  _45
REMARK   18  A    between atoms: _48  and  _50
REMARK   19  A    between atoms: _50  and  _51
REMARK   20  A    between atoms: _53  and  _55
REMARK   21  A    between atoms: _55  and  _56
REMARK   22  A    between atoms: _55  and  _58
REMARK   23  A    between atoms: _58  and  _59
REMARK   24  A    between atoms: _59  and  _60
REMARK   25  A    between atoms: _62  and  _64
REMARK   26  A    between atoms: _64  and  _65
REMARK   27  A    between atoms: _67  and  _69
REMARK   28  A    between atoms: _69  and  _70
REMARK   29  A    between atoms: _69  and  _72
REMARK   30  A    between atoms: _72  and  _73
REMARK   31  A    between atoms: _76  and  _78
REMARK   32  A    between atoms: _78  and  _79
REMARK   33  A    between atoms: _78  and  _81
REMARK   34  A    between atoms: _81  and  _82
REMARK   35  A    between atoms: _82  and  _83
REMARK   36  A    between atoms: _83  and  _84
REMARK   37  A    between atoms: _93  and  _95
REMARK   38  A    between atoms: _95  and  _96
REMARK   39  A    between atoms: _98  and  _100
REMARK   40  A    between atoms: _100  and  _101
REMARK   41  A    between atoms: _100  and  _103
REMARK   42  A    between atoms: _103  and  _104
REMARK   43  A    between atoms: _107  and  _109
REMARK   44  A    between atoms: _109  and  _110
REMARK   45  A    between atoms: _113  and  _115
REMARK   46  A    between atoms: _115  and  _116
REMARK   47  A    between atoms: _118  and  _120
REMARK   48  A    between atoms: _120  and  _121
REMARK   49  A    between atoms: _124  and  _126
REMARK   50  A    between atoms: _126  and  _127
REMARK   51  A    between atoms: _130  and  _132
REMARK   52  A    between atoms: _132  and  _133
REMARK   53  A    between atoms: _136  and  _138
REMARK   54  A    between atoms: _138  and  _139
REMARK   55  A    between atoms: _138  and  _141
REMARK   56  A    between atoms: _141  and  _142
REMARK   57  A    between atoms: _144  and  _146
REMARK   58  A    between atoms: _146  and  _147
REMARK   59  A    between atoms: _146  and  _149
REMARK   60  A    between atoms: _149  and  _150
REMARK   61  A    between atoms: _150  and  _151
REMARK   62  A    between atoms: _154  and  _156
REMARK   63  A    between atoms: _156  and  _157
REMARK   64  A    between atoms: _156  and  _159
REMARK   65  A    between atoms: _159  and  _160
REMARK   66  A    between atoms: _163  and  _165
REMARK   67  A    between atoms: _165  and  _166
REMARK   68  A    between atoms: _169  and  _171
REMARK   69  A    between atoms: _171  and  _172
REMARK   70  A    between atoms: _171  and  _174
REMARK   71  A    between atoms: _174  and  _175
REMARK   72  A    between atoms: _181  and  _183
REMARK   73  A    between atoms: _183  and  _184
REMARK   74  A    between atoms: _183  and  _186
REMARK   75  A    between atoms: _186  and  _187
REMARK   76  A    between atoms: _192  and  _193
REMARK   77  A    between atoms: _195  and  _197
REMARK   78  A    between atoms: _197  and  _198
REMARK   79  A    between atoms: _201  and  _203
REMARK   80  A    between atoms: _203  and  _204
REMARK   81  A    between atoms: _203  and  _206
REMARK   82  A    between atoms: _206  and  _207
REMARK   83  A    between atoms: _210  and  _212
REMARK   84  A    between atoms: _212  and  _213
REMARK   85  A    between atoms: _216  and  _218
REMARK   86  A    between atoms: _218  and  _219
REMARK   87  A    between atoms: _218  and  _221
REMARK   88  A    between atoms: _221  and  _222
REMARK   89  A    between atoms: _228  and  _230
REMARK   90  A    between atoms: _230  and  _231
REMARK   91  A    between atoms: _230  and  _233
REMARK   92  A    between atoms: _233  and  _234
REMARK   93  A    between atoms: _234  and  _235
REMARK   94  A    between atoms: _238  and  _240
REMARK   95  A    between atoms: _240  and  _241
REMARK   96  A    between atoms: _240  and  _243
REMARK   97  A    between atoms: _243  and  _244
REMARK   98  A    between atoms: _244  and  _245
REMARK   99  A    between atoms: _247  and  _249
REMARK  100  A    between atoms: _249  and  _250
REMARK  101  A    between atoms: _249  and  _252
REMARK  102  A    between atoms: _252  and  _253
REMARK  103  A    between atoms: _253  and  _254
REMARK  104  A    between atoms: _257  and  _259
REMARK  105  A    between atoms: _259  and  _260
REMARK  106  A    between atoms: _263  and  _265
REMARK  107  A    between atoms: _265  and  _266
REMARK  108  A    between atoms: _265  and  _268
REMARK  109  A    between atoms: _268  and  _269
REMARK  110  A    between atoms: _272  and  _274
REMARK  111  A    between atoms: _274  and  _275
REMARK  112  A    between atoms: _278  and  _280
REMARK  113  A    between atoms: _280  and  _281
REMARK  114  A    between atoms: _280  and  _283
REMARK  115  A    between atoms: _286  and  _288
REMARK  116  A    between atoms: _288  and  _289
REMARK  117  A    between atoms: _288  and  _291
REMARK  118  A    between atoms: _291  and  _292
REMARK  119  A    between atoms: _294  and  _296
REMARK  120  A    between atoms: _296  and  _297
REMARK  121  A    between atoms: _296  and  _299
REMARK  122  A    between atoms: _299  and  _300
REMARK  123  A    between atoms: _305  and  _307
REMARK  124  A    between atoms: _307  and  _308
REMARK  125  A    between atoms: _307  and  _310
REMARK  126  A    between atoms: _310  and  _311
REMARK  127  A    between atoms: _311  and  _312
REMARK  128  A    between atoms: _312  and  _313
REMARK  129  A    between atoms: _322  and  _324
REMARK  130  A    between atoms: _324  and  _325
REMARK  131  A    between atoms: _324  and  _327
REMARK  132  A    between atoms: _327  and  _328
REMARK  133  A    between atoms: _331  and  _333
REMARK  134  A    between atoms: _333  and  _334
REMARK  135  A    between atoms: _336  and  _338
REMARK  136  A    between atoms: _338  and  _339
REMARK  137  A    between atoms: _338  and  _341
REMARK  138  A    between atoms: _341  and  _342
REMARK  139  A    between atoms: _345  and  _347
REMARK  140  A    between atoms: _347  and  _348
REMARK  141  A    between atoms: _347  and  _350
REMARK  142  A    between atoms: _350  and  _351
REMARK  143  A    between atoms: _354  and  _356
REMARK  144  A    between atoms: _356  and  _357
REMARK  145  A    between atoms: _360  and  _362
REMARK  146  A    between atoms: _362  and  _363
REMARK  147  A    between atoms: _362  and  _365
REMARK  148  A    between atoms: _365  and  _366
REMARK  149  A    between atoms: _369  and  _371
REMARK  150  A    between atoms: _371  and  _372
REMARK  151  A    between atoms: _371  and  _374
REMARK  152  A    between atoms: _374  and  _375
REMARK  153  A    between atoms: _380  and  _382
REMARK  154  A    between atoms: _382  and  _383
REMARK  155  A    between atoms: _382  and  _385
REMARK  156  A    between atoms: _385  and  _386
REMARK  157  A    between atoms: _386  and  _387
REMARK  158  A    between atoms: _387  and  _388
REMARK  159  A    between atoms: _397  and  _399
REMARK  160  A    between atoms: _399  and  _400
REMARK  161  A    between atoms: _399  and  _402
REMARK  162  A    between atoms: _402  and  _403
REMARK  163  A    between atoms: _408  and  _410
REMARK  164  A    between atoms: _410  and  _411
REMARK  165  A    between atoms: _410  and  _413
REMARK  166  A    between atoms: _413  and  _414
REMARK  167  A    between atoms: _414  and  _415
REMARK  168  A    between atoms: _415  and  _416
REMARK  169  A    between atoms: _426  and  _427
REMARK  170  A    between atoms: _432  and  _434
REMARK  171  A    between atoms: _434  and  _435
REMARK  172  A    between atoms: _434  and  _437
REMARK  173  A    between atoms: _437  and  _438
REMARK  174  A    between atoms: _440  and  _442
REMARK  175  A    between atoms: _442  and  _443
REMARK  176  A    between atoms: _442  and  _445
REMARK  177  A    between atoms: _445  and  _446
REMARK  178  A    between atoms: _449  and  _451
REMARK  179  A    between atoms: _451  and  _452
REMARK  180  A    between atoms: _451  and  _454
REMARK  181  A    between atoms: _454  and  _455
REMARK  182  A    between atoms: _455  and  _456
REMARK  183  A    between atoms: _459  and  _461
REMARK  184  A    between atoms: _461  and  _462
REMARK  185  A    between atoms: _461  and  _464
REMARK  186  A    between atoms: _464  and  _465
REMARK  187  A    between atoms: _465  and  _466
REMARK                            x       y       z     vdW  Elec       q    Type
REMARK                         _______ _______ _______ _____ _____    ______ ____
ROOT
ATOM      1  O   HOH     1       8.692 -85.565-146.762  0.00  0.00    +0.000 OA
ENDROOT
TORSDOF 0
REMARK  Name = ../refined-set-2016/1odi/1odi_pocket.pdb
REMARK  187 active torsions:
REMARK  status: ('A' for Active; 'I' for Inactive)
REMARK    1  A    between atoms: _2  and  _3
REMARK    2  A    between atoms: _8  and  _10
REMARK    3  A    between atoms: _10  and  _11
REMARK    4  A    between atoms: _13  and  _15
REMARK    5  A    between atoms: _15  and  _16
REMARK    6  A    between atoms: _15  and  _18
REMARK    7  A    between atoms: _18  and  _19
REMARK    8  A    between atoms: _22  and  _24
REMARK    9  A    between atoms: _24  and  _25
REMARK   10  A    between atoms: _24  and  _27
REMARK   11  A    between atoms: _27  and  _28
REMARK   12  A    between atoms: _28  and  _29
REMARK   13  A    between atoms: _29  and  _30
REMARK   14  A    between atoms: _39  and  _41
REMARK   15  A    between atoms: _41  and  _42
REMARK   16  A    between atoms: _41  and  _44
REMARK   17  A    between atoms: _44  and  _45
REMARK   18  A    between atoms: _48  and  _50
REMARK   19  A    between atoms: _50  and  _51
REMARK   20  A    between atoms: _53  and  _55
REMARK   21  A    between atoms: _55  and  _56
REMARK   22  A    between atoms: _55  and  _58
REMARK   23  A    between atoms: _58  and  _59
REMARK   24  A    between atoms: _59  and  _60
REMARK   25  A    between atoms: _62  and  _64
REMARK   26  A    between atoms: _64  and  _65
REMARK   27  A    between atoms: _67  and  _69
REMARK   28  A    between atoms: _69  and  _70
REMARK   29  A    between atoms: _69  and  _72
REMARK   30  A    between atoms: _72  and  _73
REMARK   31  A    between atoms: _76  and  _78
REMARK   32  A    between atoms: _78  and  _79
REMARK   33  A    between atoms: _78  and  _81
REMARK   34  A    between atoms: _81  and  _82
REMARK   35  A    between atoms: _82  and  _83
REMARK   36  A    between atoms: _83  and  _84
REMARK   37  A    between atoms: _93  and  _95
REMARK   38  A    between atoms: _95  and  _96
REMARK   39  A    between atoms: _98  and  _100
REMARK   40  A    between atoms: _100  and  _101
REMARK   41  A    between atoms: _100  and  _103
REMARK   42  A    between atoms: _103  and  _104
REMARK   43  A    between atoms: _107  and  _109
REMARK   44  A    between atoms: _109  and  _110
REMARK   45  A    between atoms: _113  and  _115
REMARK   46  A    between atoms: _115  and  _116
REMARK   47  A    between atoms: _118  and  _120
REMARK   48  A    between atoms: _120  and  _121
REMARK   49  A    between atoms: _124  and  _126
REMARK   50  A    between atoms: _126  and  _127
REMARK   51  A    between atoms: _130  and  _132
REMARK   52  A    between atoms: _132  and  _133
REMARK   53  A    between atoms: _136  and  _138
REMARK   54  A    between atoms: _138  and  _139
REMARK   55  A    between atoms: _138  and  _141
REMARK   56  A    between atoms: _141  and  _142
REMARK   57  A    between atoms: _144  and  _146
REMARK   58  A    between atoms: _146  and  _147
REMARK   59  A    between atoms: _146  and  _149
REMARK   60  A    between atoms: _149  and  _150
REMARK   61  A    between atoms: _150  and  _151
REMARK   62  A    between atoms: _154  and  _156
REMARK   63  A    between atoms: _156  and  _157
REMARK   64  A    between atoms: _156  and  _159
REMARK   65  A    between atoms: _159  and  _160
REMARK   66  A    between atoms: _163  and  _165
REMARK   67  A    between atoms: _165  and  _166
REMARK   68  A    between atoms: _169  and  _171
REMARK   69  A    between atoms: _171  and  _172
REMARK   70  A    between atoms: _171  and  _174
REMARK   71  A    between atoms: _174  and  _175
REMARK   72  A    between atoms: _181  and  _183
REMARK   73  A    between atoms: _183  and  _184
REMARK   74  A    between atoms: _183  and  _186
REMARK   75  A    between atoms: _186  and  _187
REMARK   76  A    between atoms: _192  and  _193
REMARK   77  A    between atoms: _195  and  _197
REMARK   78  A    between atoms: _197  and  _198
REMARK   79  A    between atoms: _201  and  _203
REMARK   80  A    between atoms: _203  and  _204
REMARK   81  A    between atoms: _203  and  _206
REMARK   82  A    between atoms: _206  and  _207
REMARK   83  A    between atoms: _210  and  _212
REMARK   84  A    between atoms: _212  and  _213
REMARK   85  A    between atoms: _216  and  _218
REMARK   86  A    between atoms: _218  and  _219
REMARK   87  A    between atoms: _218  and  _221
REMARK   88  A    between atoms: _221  and  _222
REMARK   89  A    between atoms: _228  and  _230
REMARK   90  A    between atoms: _230  and  _231
REMARK   91  A    between atoms: _230  and  _233
REMARK   92  A    between atoms: _233  and  _234
REMARK   93  A    between atoms: _234  and  _235
REMARK   94  A    between atoms: _238  and  _240
REMARK   95  A    between atoms: _240  and  _241
REMARK   96  A    between atoms: _240  and  _243
REMARK   97  A    between atoms: _243  and  _244
REMARK   98  A    between atoms: _244  and  _245
REMARK   99  A    between atoms: _247  and  _249
REMARK  100  A    between atoms: _249  and  _250
REMARK  101  A    between atoms: _249  and  _252
REMARK  102  A    between atoms: _252  and  _253
REMARK  103  A    between atoms: _253  and  _254
REMARK  104  A    between atoms: _257  and  _259
REMARK  105  A    between atoms: _259  and  _260
REMARK  106  A    between atoms: _263  and  _265
REMARK  107  A    between atoms: _265  and  _266
REMARK  108  A    between atoms: _265  and  _268
REMARK  109  A    between atoms: _268  and  _269
REMARK  110  A    between atoms: _272  and  _274
REMARK  111  A    between atoms: _274  and  _275
REMARK  112  A    between atoms: _278  and  _280
REMARK  113  A    between atoms: _280  and  _281
REMARK  114  A    between atoms: _280  and  _283
REMARK  115  A    between atoms: _286  and  _288
REMARK  116  A    between atoms: _288  and  _289
REMARK  117  A    between atoms: _288  and  _291
REMARK  118  A    between atoms: _291  and  _292
REMARK  119  A    between atoms: _294  and  _296
REMARK  120  A    between atoms: _296  and  _297
REMARK  121  A    between atoms: _296  and  _299
REMARK  122  A    between atoms: _299  and  _300
REMARK  123  A    between atoms: _305  and  _307
REMARK  124  A    between atoms: _307  and  _308
REMARK  125  A    between atoms: _307  and  _310
REMARK  126  A    between atoms: _310  and  _311
REMARK  127  A    between atoms: _311  and  _312
REMARK  128  A    between atoms: _312  and  _313
REMARK  129  A    between atoms: _322  and  _324
REMARK  130  A    between atoms: _324  and  _325
REMARK  131  A    between atoms: _324  and  _327
REMARK  132  A    between atoms: _327  and  _328
REMARK  133  A    between atoms: _331  and  _333
REMARK  134  A    between atoms: _333  and  _334
REMARK  135  A    between atoms: _336  and  _338
REMARK  136  A    between atoms: _338  and  _339
REMARK  137  A    between atoms: _338  and  _341
REMARK  138  A    between atoms: _341  and  _342
REMARK  139  A    between atoms: _345  and  _347
REMARK  140  A    between atoms: _347  and  _348
REMARK  141  A    between atoms: _347  and  _350
REMARK  142  A    between atoms: _350  and  _351
REMARK  143  A    between atoms: _354  and  _356
REMARK  144  A    between atoms: _356  and  _357
REMARK  145  A    between atoms: _360  and  _362
REMARK  146  A    between atoms: _362  and  _363
REMARK  147  A    between atoms: _362  and  _365
REMARK  148  A    between atoms: _365  and  _366
REMARK  149  A    between atoms: _369  and  _371
REMARK  150  A    between atoms: _371  and  _372
REMARK  151  A    between atoms: _371  and  _374
REMARK  152  A    between atoms: _374  and  _375
REMARK  153  A    between atoms: _380  and  _382
REMARK  154  A    between atoms: _382  and  _383
REMARK  155  A    between atoms: _382  and  _385
REMARK  156  A    between atoms: _385  and  _386
REMARK  157  A    between atoms: _386  and  _387
REMARK  158  A    between atoms: _387  and  _388
REMARK  159  A    between atoms: _397  and  _399
REMARK  160  A    between atoms: _399  and  _400
REMARK  161  A    between atoms: _399  and  _402
REMARK  162  A    between atoms: _402  and  _403
REMARK  163  A    between atoms: _408  and  _410
REMARK  164  A    between atoms: _410  and  _411
REMARK  165  A    between atoms: _410  and  _413
REMARK  166  A    between atoms: _413  and  _414
REMARK  167  A    between atoms: _414  and  _415
REMARK  168  A    between atoms: _415  and  _416
REMARK  169  A    between atoms: _426  and  _427
REMARK  170  A    between atoms: _432  and  _434
REMARK  171  A    between atoms: _434  and  _435
REMARK  172  A    between atoms: _434  and  _437
REMARK  173  A    between atoms: _437  and  _438
REMARK  174  A    between atoms: _440  and  _442
REMARK  175  A    between atoms: _442  and  _443
REMARK  176  A    between atoms: _442  and  _445
REMARK  177  A    between atoms: _445  and  _446
REMARK  178  A    between atoms: _449  and  _451
REMARK  179  A    between atoms: _451  and  _452
REMARK  180  A    between atoms: _451  and  _454
REMARK  181  A    between atoms: _454  and  _455
REMARK  182  A    between atoms: _455  and  _456
REMARK  183  A    between atoms: _459  and  _461
REMARK  184  A    between atoms: _461  and  _462
REMARK  185  A    between atoms: _461  and  _464
REMARK  186  A    between atoms: _464  and  _465
REMARK  187  A    between atoms: _465  and  _466
REMARK                            x       y       z     vdW  Elec       q    Type
REMARK                         _______ _______ _______ _____ _____    ______ ____
ROOT
ATOM      1  O   HOH     1       0.997 -84.847-140.024  0.00  0.00    +0.000 OA
ENDROOT
TORSDOF 0
REMARK  Name = ../refined-set-2016/1odi/1odi_pocket.pdb
REMARK  187 active torsions:
REMARK  status: ('A' for Active; 'I' for Inactive)
REMARK    1  A    between atoms: _2  and  _3
REMARK    2  A    between atoms: _8  and  _10
REMARK    3  A    between atoms: _10  and  _11
REMARK    4  A    between atoms: _13  and  _15
REMARK    5  A    between atoms: _15  and  _16
REMARK    6  A    between atoms: _15  and  _18
REMARK    7  A    between atoms: _18  and  _19
REMARK    8  A    between atoms: _22  and  _24
REMARK    9  A    between atoms: _24  and  _25
REMARK   10  A    between atoms: _24  and  _27
REMARK   11  A    between atoms: _27  and  _28
REMARK   12  A    between atoms: _28  and  _29
REMARK   13  A    between atoms: _29  and  _30
REMARK   14  A    between atoms: _39  and  _41
REMARK   15  A    between atoms: _41  and  _42
REMARK   16  A    between atoms: _41  and  _44
REMARK   17  A    between atoms: _44  and  _45
REMARK   18  A    between atoms: _48  and  _50
REMARK   19  A    between atoms: _50  and  _51
REMARK   20  A    between atoms: _53  and  _55
REMARK   21  A    between atoms: _55  and  _56
REMARK   22  A    between atoms: _55  and  _58
REMARK   23  A    between atoms: _58  and  _59
REMARK   24  A    between atoms: _59  and  _60
REMARK   25  A    between atoms: _62  and  _64
REMARK   26  A    between atoms: _64  and  _65
REMARK   27  A    between atoms: _67  and  _69
REMARK   28  A    between atoms: _69  and  _70
REMARK   29  A    between atoms: _69  and  _72
REMARK   30  A    between atoms: _72  and  _73
REMARK   31  A    between atoms: _76  and  _78
REMARK   32  A    between atoms: _78  and  _79
REMARK   33  A    between atoms: _78  and  _81
REMARK   34  A    between atoms: _81  and  _82
REMARK   35  A    between atoms: _82  and  _83
REMARK   36  A    between atoms: _83  and  _84
REMARK   37  A    between atoms: _93  and  _95
REMARK   38  A    between atoms: _95  and  _96
REMARK   39  A    between atoms: _98  and  _100
REMARK   40  A    between atoms: _100  and  _101
REMARK   41  A    between atoms: _100  and  _103
REMARK   42  A    between atoms: _103  and  _104
REMARK   43  A    between atoms: _107  and  _109
REMARK   44  A    between atoms: _109  and  _110
REMARK   45  A    between atoms: _113  and  _115
REMARK   46  A    between atoms: _115  and  _116
REMARK   47  A    between atoms: _118  and  _120
REMARK   48  A    between atoms: _120  and  _121
REMARK   49  A    between atoms: _124  and  _126
REMARK   50  A    between atoms: _126  and  _127
REMARK   51  A    between atoms: _130  and  _132
REMARK   52  A    between atoms: _132  and  _133
REMARK   53  A    between atoms: _136  and  _138
REMARK   54  A    between atoms: _138  and  _139
REMARK   55  A    between atoms: _138  and  _141
REMARK   56  A    between atoms: _141  and  _142
REMARK   57  A    between atoms: _144  and  _146
REMARK   58  A    between atoms: _146  and  _147
REMARK   59  A    between atoms: _146  and  _149
REMARK   60  A    between atoms: _149  and  _150
REMARK   61  A    between atoms: _150  and  _151
REMARK   62  A    between atoms: _154  and  _156
REMARK   63  A    between atoms: _156  and  _157
REMARK   64  A    between atoms: _156  and  _159
REMARK   65  A    between atoms: _159  and  _160
REMARK   66  A    between atoms: _163  and  _165
REMARK   67  A    between atoms: _165  and  _166
REMARK   68  A    between atoms: _169  and  _171
REMARK   69  A    between atoms: _171  and  _172
REMARK   70  A    between atoms: _171  and  _174
REMARK   71  A    between atoms: _174  and  _175
REMARK   72  A    between atoms: _181  and  _183
REMARK   73  A    between atoms: _183  and  _184
REMARK   74  A    between atoms: _183  and  _186
REMARK   75  A    between atoms: _186  and  _187
REMARK   76  A    between atoms: _192  and  _193
REMARK   77  A    between atoms: _195  and  _197
REMARK   78  A    between atoms: _197  and  _198
REMARK   79  A    between atoms: _201  and  _203
REMARK   80  A    between atoms: _203  and  _204
REMARK   81  A    between atoms: _203  and  _206
REMARK   82  A    between atoms: _206  and  _207
REMARK   83  A    between atoms: _210  and  _212
REMARK   84  A    between atoms: _212  and  _213
REMARK   85  A    between atoms: _216  and  _218
REMARK   86  A    between atoms: _218  and  _219
REMARK   87  A    between atoms: _218  and  _221
REMARK   88  A    between atoms: _221  and  _222
REMARK   89  A    between atoms: _228  and  _230
REMARK   90  A    between atoms: _230  and  _231
REMARK   91  A    between atoms: _230  and  _233
REMARK   92  A    between atoms: _233  and  _234
REMARK   93  A    between atoms: _234  and  _235
REMARK   94  A    between atoms: _238  and  _240
REMARK   95  A    between atoms: _240  and  _241
REMARK   96  A    between atoms: _240  and  _243
REMARK   97  A    between atoms: _243  and  _244
REMARK   98  A    between atoms: _244  and  _245
REMARK   99  A    between atoms: _247  and  _249
REMARK  100  A    between atoms: _249  and  _250
REMARK  101  A    between atoms: _249  and  _252
REMARK  102  A    between atoms: _252  and  _253
REMARK  103  A    between atoms: _253  and  _254
REMARK  104  A    between atoms: _257  and  _259
REMARK  105  A    between atoms: _259  and  _260
REMARK  106  A    between atoms: _263  and  _265
REMARK  107  A    between atoms: _265  and  _266
REMARK  108  A    between atoms: _265  and  _268
REMARK  109  A    between atoms: _268  and  _269
REMARK  110  A    between atoms: _272  and  _274
REMARK  111  A    between atoms: _274  and  _275
REMARK  112  A    between atoms: _278  and  _280
REMARK  113  A    between atoms: _280  and  _281
REMARK  114  A    between atoms: _280  and  _283
REMARK  115  A    between atoms: _286  and  _288
REMARK  116  A    between atoms: _288  and  _289
REMARK  117  A    between atoms: _288  and  _291
REMARK  118  A    between atoms: _291  and  _292
REMARK  119  A    between atoms: _294  and  _296
REMARK  120  A    between atoms: _296  and  _297
REMARK  121  A    between atoms: _296  and  _299
REMARK  122  A    between atoms: _299  and  _300
REMARK  123  A    between atoms: _305  and  _307
REMARK  124  A    between atoms: _307  and  _308
REMARK  125  A    between atoms: _307  and  _310
REMARK  126  A    between atoms: _310  and  _311
REMARK  127  A    between atoms: _311  and  _312
REMARK  128  A    between atoms: _312  and  _313
REMARK  129  A    between atoms: _322  and  _324
REMARK  130  A    between atoms: _324  and  _325
REMARK  131  A    between atoms: _324  and  _327
REMARK  132  A    between atoms: _327  and  _328
REMARK  133  A    between atoms: _331  and  _333
REMARK  134  A    between atoms: _333  and  _334
REMARK  135  A    between atoms: _336  and  _338
REMARK  136  A    between atoms: _338  and  _339
REMARK  137  A    between atoms: _338  and  _341
REMARK  138  A    between atoms: _341  and  _342
REMARK  139  A    between atoms: _345  and  _347
REMARK  140  A    between atoms: _347  and  _348
REMARK  141  A    between atoms: _347  and  _350
REMARK  142  A    between atoms: _350  and  _351
REMARK  143  A    between atoms: _354  and  _356
REMARK  144  A    between atoms: _356  and  _357
REMARK  145  A    between atoms: _360  and  _362
REMARK  146  A    between atoms: _362  and  _363
REMARK  147  A    between atoms: _362  and  _365
REMARK  148  A    between atoms: _365  and  _366
REMARK  149  A    between atoms: _369  and  _371
REMARK  150  A    between atoms: _371  and  _372
REMARK  151  A    between atoms: _371  and  _374
REMARK  152  A    between atoms: _374  and  _375
REMARK  153  A    between atoms: _380  and  _382
REMARK  154  A    between atoms: _382  and  _383
REMARK  155  A    between atoms: _382  and  _385
REMARK  156  A    between atoms: _385  and  _386
REMARK  157  A    between atoms: _386  and  _387
REMARK  158  A    between atoms: _387  and  _388
REMARK  159  A    between atoms: _397  and  _399
REMARK  160  A    between atoms: _399  and  _400
REMARK  161  A    between atoms: _399  and  _402
REMARK  162  A    between atoms: _402  and  _403
REMARK  163  A    between atoms: _408  and  _410
REMARK  164  A    between atoms: _410  and  _411
REMARK  165  A    between atoms: _410  and  _413
REMARK  166  A    between atoms: _413  and  _414
REMARK  167  A    between atoms: _414  and  _415
REMARK  168  A    between atoms: _415  and  _416
REMARK  169  A    between atoms: _426  and  _427
REMARK  170  A    between atoms: _432  and  _434
REMARK  171  A    between atoms: _434  and  _435
REMARK  172  A    between atoms: _434  and  _437
REMARK  173  A    between atoms: _437  and  _438
REMARK  174  A    between atoms: _440  and  _442
REMARK  175  A    between atoms: _442  and  _443
REMARK  176  A    between atoms: _442  and  _445
REMARK  177  A    between atoms: _445  and  _446
REMARK  178  A    between atoms: _449  and  _451
REMARK  179  A    between atoms: _451  and  _452
REMARK  180  A    between atoms: _451  and  _454
REMARK  181  A    between atoms: _454  and  _455
REMARK  182  A    between atoms: _455  and  _456
REMARK  183  A    between atoms: _459  and  _461
REMARK  184  A    between atoms: _461  and  _462
REMARK  185  A    between atoms: _461  and  _464
REMARK  186  A    between atoms: _464  and  _465
REMARK  187  A    between atoms: _465  and  _466
REMARK                            x       y       z     vdW  Elec       q    Type
REMARK                         _______ _______ _______ _____ _____    ______ ____
ROOT
ATOM      1  O   HOH     1       2.666 -88.734-146.944  0.00  0.00    +0.000 OA
ENDROOT
TORSDOF 0
REMARK  Name = ../refined-set-2016/1odi/1odi_pocket.pdb
REMARK  187 active torsions:
REMARK  status: ('A' for Active; 'I' for Inactive)
REMARK    1  A    between atoms: _2  and  _3
REMARK    2  A    between atoms: _8  and  _10
REMARK    3  A    between atoms: _10  and  _11
REMARK    4  A    between atoms: _13  and  _15
REMARK    5  A    between atoms: _15  and  _16
REMARK    6  A    between atoms: _15  and  _18
REMARK    7  A    between atoms: _18  and  _19
REMARK    8  A    between atoms: _22  and  _24
REMARK    9  A    between atoms: _24  and  _25
REMARK   10  A    between atoms: _24  and  _27
REMARK   11  A    between atoms: _27  and  _28
REMARK   12  A    between atoms: _28  and  _29
REMARK   13  A    between atoms: _29  and  _30
REMARK   14  A    between atoms: _39  and  _41
REMARK   15  A    between atoms: _41  and  _42
REMARK   16  A    between atoms: _41  and  _44
REMARK   17  A    between atoms: _44  and  _45
REMARK   18  A    between atoms: _48  and  _50
REMARK   19  A    between atoms: _50  and  _51
REMARK   20  A    between atoms: _53  and  _55
REMARK   21  A    between atoms: _55  and  _56
REMARK   22  A    between atoms: _55  and  _58
REMARK   23  A    between atoms: _58  and  _59
REMARK   24  A    between atoms: _59  and  _60
REMARK   25  A    between atoms: _62  and  _64
REMARK   26  A    between atoms: _64  and  _65
REMARK   27  A    between atoms: _67  and  _69
REMARK   28  A    between atoms: _69  and  _70
REMARK   29  A    between atoms: _69  and  _72
REMARK   30  A    between atoms: _72  and  _73
REMARK   31  A    between atoms: _76  and  _78
REMARK   32  A    between atoms: _78  and  _79
REMARK   33  A    between atoms: _78  and  _81
REMARK   34  A    between atoms: _81  and  _82
REMARK   35  A    between atoms: _82  and  _83
REMARK   36  A    between atoms: _83  and  _84
REMARK   37  A    between atoms: _93  and  _95
REMARK   38  A    between atoms: _95  and  _96
REMARK   39  A    between atoms: _98  and  _100
REMARK   40  A    between atoms: _100  and  _101
REMARK   41  A    between atoms: _100  and  _103
REMARK   42  A    between atoms: _103  and  _104
REMARK   43  A    between atoms: _107  and  _109
REMARK   44  A    between atoms: _109  and  _110
REMARK   45  A    between atoms: _113  and  _115
REMARK   46  A    between atoms: _115  and  _116
REMARK   47  A    between atoms: _118  and  _120
REMARK   48  A    between atoms: _120  and  _121
REMARK   49  A    between atoms: _124  and  _126
REMARK   50  A    between atoms: _126  and  _127
REMARK   51  A    between atoms: _130  and  _132
REMARK   52  A    between atoms: _132  and  _133
REMARK   53  A    between atoms: _136  and  _138
REMARK   54  A    between atoms: _138  and  _139
REMARK   55  A    between atoms: _138  and  _141
REMARK   56  A    between atoms: _141  and  _142
REMARK   57  A    between atoms: _144  and  _146
REMARK   58  A    between atoms: _146  and  _147
REMARK   59  A    between atoms: _146  and  _149
REMARK   60  A    between atoms: _149  and  _150
REMARK   61  A    between atoms: _150  and  _151
REMARK   62  A    between atoms: _154  and  _156
REMARK   63  A    between atoms: _156  and  _157
REMARK   64  A    between atoms: _156  and  _159
REMARK   65  A    between atoms: _159  and  _160
REMARK   66  A    between atoms: _163  and  _165
REMARK   67  A    between atoms: _165  and  _166
REMARK   68  A    between atoms: _169  and  _171
REMARK   69  A    between atoms: _171  and  _172
REMARK   70  A    between atoms: _171  and  _174
REMARK   71  A    between atoms: _174  and  _175
REMARK   72  A    between atoms: _181  and  _183
REMARK   73  A    between atoms: _183  and  _184
REMARK   74  A    between atoms: _183  and  _186
REMARK   75  A    between atoms: _186  and  _187
REMARK   76  A    between atoms: _192  and  _193
REMARK   77  A    between atoms: _195  and  _197
REMARK   78  A    between atoms: _197  and  _198
REMARK   79  A    between atoms: _201  and  _203
REMARK   80  A    between atoms: _203  and  _204
REMARK   81  A    between atoms: _203  and  _206
REMARK   82  A    between atoms: _206  and  _207
REMARK   83  A    between atoms: _210  and  _212
REMARK   84  A    between atoms: _212  and  _213
REMARK   85  A    between atoms: _216  and  _218
REMARK   86  A    between atoms: _218  and  _219
REMARK   87  A    between atoms: _218  and  _221
REMARK   88  A    between atoms: _221  and  _222
REMARK   89  A    between atoms: _228  and  _230
REMARK   90  A    between atoms: _230  and  _231
REMARK   91  A    between atoms: _230  and  _233
REMARK   92  A    between atoms: _233  and  _234
REMARK   93  A    between atoms: _234  and  _235
REMARK   94  A    between atoms: _238  and  _240
REMARK   95  A    between atoms: _240  and  _241
REMARK   96  A    between atoms: _240  and  _243
REMARK   97  A    between atoms: _243  and  _244
REMARK   98  A    between atoms: _244  and  _245
REMARK   99  A    between atoms: _247  and  _249
REMARK  100  A    between atoms: _249  and  _250
REMARK  101  A    between atoms: _249  and  _252
REMARK  102  A    between atoms: _252  and  _253
REMARK  103  A    between atoms: _253  and  _254
REMARK  104  A    between atoms: _257  and  _259
REMARK  105  A    between atoms: _259  and  _260
REMARK  106  A    between atoms: _263  and  _265
REMARK  107  A    between atoms: _265  and  _266
REMARK  108  A    between atoms: _265  and  _268
REMARK  109  A    between atoms: _268  and  _269
REMARK  110  A    between atoms: _272  and  _274
REMARK  111  A    between atoms: _274  and  _275
REMARK  112  A    between atoms: _278  and  _280
REMARK  113  A    between atoms: _280  and  _281
REMARK  114  A    between atoms: _280  and  _283
REMARK  115  A    between atoms: _286  and  _288
REMARK  116  A    between atoms: _288  and  _289
REMARK  117  A    between atoms: _288  and  _291
REMARK  118  A    between atoms: _291  and  _292
REMARK  119  A    between atoms: _294  and  _296
REMARK  120  A    between atoms: _296  and  _297
REMARK  121  A    between atoms: _296  and  _299
REMARK  122  A    between atoms: _299  and  _300
REMARK  123  A    between atoms: _305  and  _307
REMARK  124  A    between atoms: _307  and  _308
REMARK  125  A    between atoms: _307  and  _310
REMARK  126  A    between atoms: _310  and  _311
REMARK  127  A    between atoms: _311  and  _312
REMARK  128  A    between atoms: _312  and  _313
REMARK  129  A    between atoms: _322  and  _324
REMARK  130  A    between atoms: _324  and  _325
REMARK  131  A    between atoms: _324  and  _327
REMARK  132  A    between atoms: _327  and  _328
REMARK  133  A    between atoms: _331  and  _333
REMARK  134  A    between atoms: _333  and  _334
REMARK  135  A    between atoms: _336  and  _338
REMARK  136  A    between atoms: _338  and  _339
REMARK  137  A    between atoms: _338  and  _341
REMARK  138  A    between atoms: _341  and  _342
REMARK  139  A    between atoms: _345  and  _347
REMARK  140  A    between atoms: _347  and  _348
REMARK  141  A    between atoms: _347  and  _350
REMARK  142  A    between atoms: _350  and  _351
REMARK  143  A    between atoms: _354  and  _356
REMARK  144  A    between atoms: _356  and  _357
REMARK  145  A    between atoms: _360  and  _362
REMARK  146  A    between atoms: _362  and  _363
REMARK  147  A    between atoms: _362  and  _365
REMARK  148  A    between atoms: _365  and  _366
REMARK  149  A    between atoms: _369  and  _371
REMARK  150  A    between atoms: _371  and  _372
REMARK  151  A    between atoms: _371  and  _374
REMARK  152  A    between atoms: _374  and  _375
REMARK  153  A    between atoms: _380  and  _382
REMARK  154  A    between atoms: _382  and  _383
REMARK  155  A    between atoms: _382  and  _385
REMARK  156  A    between atoms: _385  and  _386
REMARK  157  A    between atoms: _386  and  _387
REMARK  158  A    between atoms: _387  and  _388
REMARK  159  A    between atoms: _397  and  _399
REMARK  160  A    between atoms: _399  and  _400
REMARK  161  A    between atoms: _399  and  _402
REMARK  162  A    between atoms: _402  and  _403
REMARK  163  A    between atoms: _408  and  _410
REMARK  164  A    between atoms: _410  and  _411
REMARK  165  A    between atoms: _410  and  _413
REMARK  166  A    between atoms: _413  and  _414
REMARK  167  A    between atoms: _414  and  _415
REMARK  168  A    between atoms: _415  and  _416
REMARK  169  A    between atoms: _426  and  _427
REMARK  170  A    between atoms: _432  and  _434
REMARK  171  A    between atoms: _434  and  _435
REMARK  172  A    between atoms: _434  and  _437
REMARK  173  A    between atoms: _437  and  _438
REMARK  174  A    between atoms: _440  and  _442
REMARK  175  A    between atoms: _442  and  _443
REMARK  176  A    between atoms: _442  and  _445
REMARK  177  A    between atoms: _445  and  _446
REMARK  178  A    between atoms: _449  and  _451
REMARK  179  A    between atoms: _451  and  _452
REMARK  180  A    between atoms: _451  and  _454
REMARK  181  A    between atoms: _454  and  _455
REMARK  182  A    between atoms: _455  and  _456
REMARK  183  A    between atoms: _459  and  _461
REMARK  184  A    between atoms: _461  and  _462
REMARK  185  A    between atoms: _461  and  _464
REMARK  186  A    between atoms: _464  and  _465
REMARK  187  A    between atoms: _465  and  _466
REMARK                            x       y       z     vdW  Elec       q    Type
REMARK                         _______ _______ _______ _____ _____    ______ ____
ROOT
ATOM      1  O   HOH     1      -1.710 -76.378-145.251  0.00  0.00    +0.000 OA
ENDROOT
TORSDOF 0
REMARK  Name = ../refined-set-2016/1odi/1odi_pocket.pdb
REMARK  187 active torsions:
REMARK  status: ('A' for Active; 'I' for Inactive)
REMARK    1  A    between atoms: _2  and  _3
REMARK    2  A    between atoms: _8  and  _10
REMARK    3  A    between atoms: _10  and  _11
REMARK    4  A    between atoms: _13  and  _15
REMARK    5  A    between atoms: _15  and  _16
REMARK    6  A    between atoms: _15  and  _18
REMARK    7  A    between atoms: _18  and  _19
REMARK    8  A    between atoms: _22  and  _24
REMARK    9  A    between atoms: _24  and  _25
REMARK   10  A    between atoms: _24  and  _27
REMARK   11  A    between atoms: _27  and  _28
REMARK   12  A    between atoms: _28  and  _29
REMARK   13  A    between atoms: _29  and  _30
REMARK   14  A    between atoms: _39  and  _41
REMARK   15  A    between atoms: _41  and  _42
REMARK   16  A    between atoms: _41  and  _44
REMARK   17  A    between atoms: _44  and  _45
REMARK   18  A    between atoms: _48  and  _50
REMARK   19  A    between atoms: _50  and  _51
REMARK   20  A    between atoms: _53  and  _55
REMARK   21  A    between atoms: _55  and  _56
REMARK   22  A    between atoms: _55  and  _58
REMARK   23  A    between atoms: _58  and  _59
REMARK   24  A    between atoms: _59  and  _60
REMARK   25  A    between atoms: _62  and  _64
REMARK   26  A    between atoms: _64  and  _65
REMARK   27  A    between atoms: _67  and  _69
REMARK   28  A    between atoms: _69  and  _70
REMARK   29  A    between atoms: _69  and  _72
REMARK   30  A    between atoms: _72  and  _73
REMARK   31  A    between atoms: _76  and  _78
REMARK   32  A    between atoms: _78  and  _79
REMARK   33  A    between atoms: _78  and  _81
REMARK   34  A    between atoms: _81  and  _82
REMARK   35  A    between atoms: _82  and  _83
REMARK   36  A    between atoms: _83  and  _84
REMARK   37  A    between atoms: _93  and  _95
REMARK   38  A    between atoms: _95  and  _96
REMARK   39  A    between atoms: _98  and  _100
REMARK   40  A    between atoms: _100  and  _101
REMARK   41  A    between atoms: _100  and  _103
REMARK   42  A    between atoms: _103  and  _104
REMARK   43  A    between atoms: _107  and  _109
REMARK   44  A    between atoms: _109  and  _110
REMARK   45  A    between atoms: _113  and  _115
REMARK   46  A    between atoms: _115  and  _116
REMARK   47  A    between atoms: _118  and  _120
REMARK   48  A    between atoms: _120  and  _121
REMARK   49  A    between atoms: _124  and  _126
REMARK   50  A    between atoms: _126  and  _127
REMARK   51  A    between atoms: _130  and  _132
REMARK   52  A    between atoms: _132  and  _133
REMARK   53  A    between atoms: _136  and  _138
REMARK   54  A    between atoms: _138  and  _139
REMARK   55  A    between atoms: _138  and  _141
REMARK   56  A    between atoms: _141  and  _142
REMARK   57  A    between atoms: _144  and  _146
REMARK   58  A    between atoms: _146  and  _147
REMARK   59  A    between atoms: _146  and  _149
REMARK   60  A    between atoms: _149  and  _150
REMARK   61  A    between atoms: _150  and  _151
REMARK   62  A    between atoms: _154  and  _156
REMARK   63  A    between atoms: _156  and  _157
REMARK   64  A    between atoms: _156  and  _159
REMARK   65  A    between atoms: _159  and  _160
REMARK   66  A    between atoms: _163  and  _165
REMARK   67  A    between atoms: _165  and  _166
REMARK   68  A    between atoms: _169  and  _171
REMARK   69  A    between atoms: _171  and  _172
REMARK   70  A    between atoms: _171  and  _174
REMARK   71  A    between atoms: _174  and  _175
REMARK   72  A    between atoms: _181  and  _183
REMARK   73  A    between atoms: _183  and  _184
REMARK   74  A    between atoms: _183  and  _186
REMARK   75  A    between atoms: _186  and  _187
REMARK   76  A    between atoms: _192  and  _193
REMARK   77  A    between atoms: _195  and  _197
REMARK   78  A    between atoms: _197  and  _198
REMARK   79  A    between atoms: _201  and  _203
REMARK   80  A    between atoms: _203  and  _204
REMARK   81  A    between atoms: _203  and  _206
REMARK   82  A    between atoms: _206  and  _207
REMARK   83  A    between atoms: _210  and  _212
REMARK   84  A    between atoms: _212  and  _213
REMARK   85  A    between atoms: _216  and  _218
REMARK   86  A    between atoms: _218  and  _219
REMARK   87  A    between atoms: _218  and  _221
REMARK   88  A    between atoms: _221  and  _222
REMARK   89  A    between atoms: _228  and  _230
REMARK   90  A    between atoms: _230  and  _231
REMARK   91  A    between atoms: _230  and  _233
REMARK   92  A    between atoms: _233  and  _234
REMARK   93  A    between atoms: _234  and  _235
REMARK   94  A    between atoms: _238  and  _240
REMARK   95  A    between atoms: _240  and  _241
REMARK   96  A    between atoms: _240  and  _243
REMARK   97  A    between atoms: _243  and  _244
REMARK   98  A    between atoms: _244  and  _245
REMARK   99  A    between atoms: _247  and  _249
REMARK  100  A    between atoms: _249  and  _250
REMARK  101  A    between atoms: _249  and  _252
REMARK  102  A    between atoms: _252  and  _253
REMARK  103  A    between atoms: _253  and  _254
REMARK  104  A    between atoms: _257  and  _259
REMARK  105  A    between atoms: _259  and  _260
REMARK  106  A    between atoms: _263  and  _265
REMARK  107  A    between atoms: _265  and  _266
REMARK  108  A    between atoms: _265  and  _268
REMARK  109  A    between atoms: _268  and  _269
REMARK  110  A    between atoms: _272  and  _274
REMARK  111  A    between atoms: _274  and  _275
REMARK  112  A    between atoms: _278  and  _280
REMARK  113  A    between atoms: _280  and  _281
REMARK  114  A    between atoms: _280  and  _283
REMARK  115  A    between atoms: _286  and  _288
REMARK  116  A    between atoms: _288  and  _289
REMARK  117  A    between atoms: _288  and  _291
REMARK  118  A    between atoms: _291  and  _292
REMARK  119  A    between atoms: _294  and  _296
REMARK  120  A    between atoms: _296  and  _297
REMARK  121  A    between atoms: _296  and  _299
REMARK  122  A    between atoms: _299  and  _300
REMARK  123  A    between atoms: _305  and  _307
REMARK  124  A    between atoms: _307  and  _308
REMARK  125  A    between atoms: _307  and  _310
REMARK  126  A    between atoms: _310  and  _311
REMARK  127  A    between atoms: _311  and  _312
REMARK  128  A    between atoms: _312  and  _313
REMARK  129  A    between atoms: _322  and  _324
REMARK  130  A    between atoms: _324  and  _325
REMARK  131  A    between atoms: _324  and  _327
REMARK  132  A    between atoms: _327  and  _328
REMARK  133  A    between atoms: _331  and  _333
REMARK  134  A    between atoms: _333  and  _334
REMARK  135  A    between atoms: _336  and  _338
REMARK  136  A    between atoms: _338  and  _339
REMARK  137  A    between atoms: _338  and  _341
REMARK  138  A    between atoms: _341  and  _342
REMARK  139  A    between atoms: _345  and  _347
REMARK  140  A    between atoms: _347  and  _348
REMARK  141  A    between atoms: _347  and  _350
REMARK  142  A    between atoms: _350  and  _351
REMARK  143  A    between atoms: _354  and  _356
REMARK  144  A    between atoms: _356  and  _357
REMARK  145  A    between atoms: _360  and  _362
REMARK  146  A    between atoms: _362  and  _363
REMARK  147  A    between atoms: _362  and  _365
REMARK  148  A    between atoms: _365  and  _366
REMARK  149  A    between atoms: _369  and  _371
REMARK  150  A    between atoms: _371  and  _372
REMARK  151  A    between atoms: _371  and  _374
REMARK  152  A    between atoms: _374  and  _375
REMARK  153  A    between atoms: _380  and  _382
REMARK  154  A    between atoms: _382  and  _383
REMARK  155  A    between atoms: _382  and  _385
REMARK  156  A    between atoms: _385  and  _386
REMARK  157  A    between atoms: _386  and  _387
REMARK  158  A    between atoms: _387  and  _388
REMARK  159  A    between atoms: _397  and  _399
REMARK  160  A    between atoms: _399  and  _400
REMARK  161  A    between atoms: _399  and  _402
REMARK  162  A    between atoms: _402  and  _403
REMARK  163  A    between atoms: _408  and  _410
REMARK  164  A    between atoms: _410  and  _411
REMARK  165  A    between atoms: _410  and  _413
REMARK  166  A    between atoms: _413  and  _414
REMARK  167  A    between atoms: _414  and  _415
REMARK  168  A    between atoms: _415  and  _416
REMARK  169  A    between atoms: _426  and  _427
REMARK  170  A    between atoms: _432  and  _434
REMARK  171  A    between atoms: _434  and  _435
REMARK  172  A    between atoms: _434  and  _437
REMARK  173  A    between atoms: _437  and  _438
REMARK  174  A    between atoms: _440  and  _442
REMARK  175  A    between atoms: _442  and  _443
REMARK  176  A    between atoms: _442  and  _445
REMARK  177  A    between atoms: _445  and  _446
REMARK  178  A    between atoms: _449  and  _451
REMARK  179  A    between atoms: _451  and  _452
REMARK  180  A    between atoms: _451  and  _454
REMARK  181  A    between atoms: _454  and  _455
REMARK  182  A    between atoms: _455  and  _456
REMARK  183  A    between atoms: _459  and  _461
REMARK  184  A    between atoms: _461  and  _462
REMARK  185  A    between atoms: _461  and  _464
REMARK  186  A    between atoms: _464  and  _465
REMARK  187  A    between atoms: _465  and  _466
REMARK                            x       y       z     vdW  Elec       q    Type
REMARK                         _______ _______ _______ _____ _____    ______ ____
ROOT
ATOM      1  O   HOH     1      -4.265 -82.273-139.976  0.00  0.00    +0.000 OA
ENDROOT
TORSDOF 0
REMARK  Name = ../refined-set-2016/1odi/1odi_pocket.pdb
REMARK  187 active torsions:
REMARK  status: ('A' for Active; 'I' for Inactive)
REMARK    1  A    between atoms: _2  and  _3
REMARK    2  A    between atoms: _8  and  _10
REMARK    3  A    between atoms: _10  and  _11
REMARK    4  A    between atoms: _13  and  _15
REMARK    5  A    between atoms: _15  and  _16
REMARK    6  A    between atoms: _15  and  _18
REMARK    7  A    between atoms: _18  and  _19
REMARK    8  A    between atoms: _22  and  _24
REMARK    9  A    between atoms: _24  and  _25
REMARK   10  A    between atoms: _24  and  _27
REMARK   11  A    between atoms: _27  and  _28
REMARK   12  A    between atoms: _28  and  _29
REMARK   13  A    between atoms: _29  and  _30
REMARK   14  A    between atoms: _39  and  _41
REMARK   15  A    between atoms: _41  and  _42
REMARK   16  A    between atoms: _41  and  _44
REMARK   17  A    between atoms: _44  and  _45
REMARK   18  A    between atoms: _48  and  _50
REMARK   19  A    between atoms: _50  and  _51
REMARK   20  A    between atoms: _53  and  _55
REMARK   21  A    between atoms: _55  and  _56
REMARK   22  A    between atoms: _55  and  _58
REMARK   23  A    between atoms: _58  and  _59
REMARK   24  A    between atoms: _59  and  _60
REMARK   25  A    between atoms: _62  and  _64
REMARK   26  A    between atoms: _64  and  _65
REMARK   27  A    between atoms: _67  and  _69
REMARK   28  A    between atoms: _69  and  _70
REMARK   29  A    between atoms: _69  and  _72
REMARK   30  A    between atoms: _72  and  _73
REMARK   31  A    between atoms: _76  and  _78
REMARK   32  A    between atoms: _78  and  _79
REMARK   33  A    between atoms: _78  and  _81
REMARK   34  A    between atoms: _81  and  _82
REMARK   35  A    between atoms: _82  and  _83
REMARK   36  A    between atoms: _83  and  _84
REMARK   37  A    between atoms: _93  and  _95
REMARK   38  A    between atoms: _95  and  _96
REMARK   39  A    between atoms: _98  and  _100
REMARK   40  A    between atoms: _100  and  _101
REMARK   41  A    between atoms: _100  and  _103
REMARK   42  A    between atoms: _103  and  _104
REMARK   43  A    between atoms: _107  and  _109
REMARK   44  A    between atoms: _109  and  _110
REMARK   45  A    between atoms: _113  and  _115
REMARK   46  A    between atoms: _115  and  _116
REMARK   47  A    between atoms: _118  and  _120
REMARK   48  A    between atoms: _120  and  _121
REMARK   49  A    between atoms: _124  and  _126
REMARK   50  A    between atoms: _126  and  _127
REMARK   51  A    between atoms: _130  and  _132
REMARK   52  A    between atoms: _132  and  _133
REMARK   53  A    between atoms: _136  and  _138
REMARK   54  A    between atoms: _138  and  _139
REMARK   55  A    between atoms: _138  and  _141
REMARK   56  A    between atoms: _141  and  _142
REMARK   57  A    between atoms: _144  and  _146
REMARK   58  A    between atoms: _146  and  _147
REMARK   59  A    between atoms: _146  and  _149
REMARK   60  A    between atoms: _149  and  _150
REMARK   61  A    between atoms: _150  and  _151
REMARK   62  A    between atoms: _154  and  _156
REMARK   63  A    between atoms: _156  and  _157
REMARK   64  A    between atoms: _156  and  _159
REMARK   65  A    between atoms: _159  and  _160
REMARK   66  A    between atoms: _163  and  _165
REMARK   67  A    between atoms: _165  and  _166
REMARK   68  A    between atoms: _169  and  _171
REMARK   69  A    between atoms: _171  and  _172
REMARK   70  A    between atoms: _171  and  _174
REMARK   71  A    between atoms: _174  and  _175
REMARK   72  A    between atoms: _181  and  _183
REMARK   73  A    between atoms: _183  and  _184
REMARK   74  A    between atoms: _183  and  _186
REMARK   75  A    between atoms: _186  and  _187
REMARK   76  A    between atoms: _192  and  _193
REMARK   77  A    between atoms: _195  and  _197
REMARK   78  A    between atoms: _197  and  _198
REMARK   79  A    between atoms: _201  and  _203
REMARK   80  A    between atoms: _203  and  _204
REMARK   81  A    between atoms: _203  and  _206
REMARK   82  A    between atoms: _206  and  _207
REMARK   83  A    between atoms: _210  and  _212
REMARK   84  A    between atoms: _212  and  _213
REMARK   85  A    between atoms: _216  and  _218
REMARK   86  A    between atoms: _218  and  _219
REMARK   87  A    between atoms: _218  and  _221
REMARK   88  A    between atoms: _221  and  _222
REMARK   89  A    between atoms: _228  and  _230
REMARK   90  A    between atoms: _230  and  _231
REMARK   91  A    between atoms: _230  and  _233
REMARK   92  A    between atoms: _233  and  _234
REMARK   93  A    between atoms: _234  and  _235
REMARK   94  A    between atoms: _238  and  _240
REMARK   95  A    between atoms: _240  and  _241
REMARK   96  A    between atoms: _240  and  _243
REMARK   97  A    between atoms: _243  and  _244
REMARK   98  A    between atoms: _244  and  _245
REMARK   99  A    between atoms: _247  and  _249
REMARK  100  A    between atoms: _249  and  _250
REMARK  101  A    between atoms: _249  and  _252
REMARK  102  A    between atoms: _252  and  _253
REMARK  103  A    between atoms: _253  and  _254
REMARK  104  A    between atoms: _257  and  _259
REMARK  105  A    between atoms: _259  and  _260
REMARK  106  A    between atoms: _263  and  _265
REMARK  107  A    between atoms: _265  and  _266
REMARK  108  A    between atoms: _265  and  _268
REMARK  109  A    between atoms: _268  and  _269
REMARK  110  A    between atoms: _272  and  _274
REMARK  111  A    between atoms: _274  and  _275
REMARK  112  A    between atoms: _278  and  _280
REMARK  113  A    between atoms: _280  and  _281
REMARK  114  A    between atoms: _280  and  _283
REMARK  115  A    between atoms: _286  and  _288
REMARK  116  A    between atoms: _288  and  _289
REMARK  117  A    between atoms: _288  and  _291
REMARK  118  A    between atoms: _291  and  _292
REMARK  119  A    between atoms: _294  and  _296
REMARK  120  A    between atoms: _296  and  _297
REMARK  121  A    between atoms: _296  and  _299
REMARK  122  A    between atoms: _299  and  _300
REMARK  123  A    between atoms: _305  and  _307
REMARK  124  A    between atoms: _307  and  _308
REMARK  125  A    between atoms: _307  and  _310
REMARK  126  A    between atoms: _310  and  _311
REMARK  127  A    between atoms: _311  and  _312
REMARK  128  A    between atoms: _312  and  _313
REMARK  129  A    between atoms: _322  and  _324
REMARK  130  A    between atoms: _324  and  _325
REMARK  131  A    between atoms: _324  and  _327
REMARK  132  A    between atoms: _327  and  _328
REMARK  133  A    between atoms: _331  and  _333
REMARK  134  A    between atoms: _333  and  _334
REMARK  135  A    between atoms: _336  and  _338
REMARK  136  A    between atoms: _338  and  _339
REMARK  137  A    between atoms: _338  and  _341
REMARK  138  A    between atoms: _341  and  _342
REMARK  139  A    between atoms: _345  and  _347
REMARK  140  A    between atoms: _347  and  _348
REMARK  141  A    between atoms: _347  and  _350
REMARK  142  A    between atoms: _350  and  _351
REMARK  143  A    between atoms: _354  and  _356
REMARK  144  A    between atoms: _356  and  _357
REMARK  145  A    between atoms: _360  and  _362
REMARK  146  A    between atoms: _362  and  _363
REMARK  147  A    between atoms: _362  and  _365
REMARK  148  A    between atoms: _365  and  _366
REMARK  149  A    between atoms: _369  and  _371
REMARK  150  A    between atoms: _371  and  _372
REMARK  151  A    between atoms: _371  and  _374
REMARK  152  A    between atoms: _374  and  _375
REMARK  153  A    between atoms: _380  and  _382
REMARK  154  A    between atoms: _382  and  _383
REMARK  155  A    between atoms: _382  and  _385
REMARK  156  A    between atoms: _385  and  _386
REMARK  157  A    between atoms: _386  and  _387
REMARK  158  A    between atoms: _387  and  _388
REMARK  159  A    between atoms: _397  and  _399
REMARK  160  A    between atoms: _399  and  _400
REMARK  161  A    between atoms: _399  and  _402
REMARK  162  A    between atoms: _402  and  _403
REMARK  163  A    between atoms: _408  and  _410
REMARK  164  A    between atoms: _410  and  _411
REMARK  165  A    between atoms: _410  and  _413
REMARK  166  A    between atoms: _413  and  _414
REMARK  167  A    between atoms: _414  and  _415
REMARK  168  A    between atoms: _415  and  _416
REMARK  169  A    between atoms: _426  and  _427
REMARK  170  A    between atoms: _432  and  _434
REMARK  171  A    between atoms: _434  and  _435
REMARK  172  A    between atoms: _434  and  _437
REMARK  173  A    between atoms: _437  and  _438
REMARK  174  A    between atoms: _440  and  _442
REMARK  175  A    between atoms: _442  and  _443
REMARK  176  A    between atoms: _442  and  _445
REMARK  177  A    between atoms: _445  and  _446
REMARK  178  A    between atoms: _449  and  _451
REMARK  179  A    between atoms: _451  and  _452
REMARK  180  A    between atoms: _451  and  _454
REMARK  181  A    between atoms: _454  and  _455
REMARK  182  A    between atoms: _455  and  _456
REMARK  183  A    between atoms: _459  and  _461
REMARK  184  A    between atoms: _461  and  _462
REMARK  185  A    between atoms: _461  and  _464
REMARK  186  A    between atoms: _464  and  _465
REMARK  187  A    between atoms: _465  and  _466
REMARK                            x       y       z     vdW  Elec       q    Type
REMARK                         _______ _______ _______ _____ _____    ______ ____
ROOT
ATOM      1  O   HOH     1      -2.737 -81.880-132.574  0.00  0.00    +0.000 OA
ENDROOT
TORSDOF 0
REMARK  Name = ../refined-set-2016/1odi/1odi_pocket.pdb
REMARK  187 active torsions:
REMARK  status: ('A' for Active; 'I' for Inactive)
REMARK    1  A    between atoms: _2  and  _3
REMARK    2  A    between atoms: _8  and  _10
REMARK    3  A    between atoms: _10  and  _11
REMARK    4  A    between atoms: _13  and  _15
REMARK    5  A    between atoms: _15  and  _16
REMARK    6  A    between atoms: _15  and  _18
REMARK    7  A    between atoms: _18  and  _19
REMARK    8  A    between atoms: _22  and  _24
REMARK    9  A    between atoms: _24  and  _25
REMARK   10  A    between atoms: _24  and  _27
REMARK   11  A    between atoms: _27  and  _28
REMARK   12  A    between atoms: _28  and  _29
REMARK   13  A    between atoms: _29  and  _30
REMARK   14  A    between atoms: _39  and  _41
REMARK   15  A    between atoms: _41  and  _42
REMARK   16  A    between atoms: _41  and  _44
REMARK   17  A    between atoms: _44  and  _45
REMARK   18  A    between atoms: _48  and  _50
REMARK   19  A    between atoms: _50  and  _51
REMARK   20  A    between atoms: _53  and  _55
REMARK   21  A    between atoms: _55  and  _56
REMARK   22  A    between atoms: _55  and  _58
REMARK   23  A    between atoms: _58  and  _59
REMARK   24  A    between atoms: _59  and  _60
REMARK   25  A    between atoms: _62  and  _64
REMARK   26  A    between atoms: _64  and  _65
REMARK   27  A    between atoms: _67  and  _69
REMARK   28  A    between atoms: _69  and  _70
REMARK   29  A    between atoms: _69  and  _72
REMARK   30  A    between atoms: _72  and  _73
REMARK   31  A    between atoms: _76  and  _78
REMARK   32  A    between atoms: _78  and  _79
REMARK   33  A    between atoms: _78  and  _81
REMARK   34  A    between atoms: _81  and  _82
REMARK   35  A    between atoms: _82  and  _83
REMARK   36  A    between atoms: _83  and  _84
REMARK   37  A    between atoms: _93  and  _95
REMARK   38  A    between atoms: _95  and  _96
REMARK   39  A    between atoms: _98  and  _100
REMARK   40  A    between atoms: _100  and  _101
REMARK   41  A    between atoms: _100  and  _103
REMARK   42  A    between atoms: _103  and  _104
REMARK   43  A    between atoms: _107  and  _109
REMARK   44  A    between atoms: _109  and  _110
REMARK   45  A    between atoms: _113  and  _115
REMARK   46  A    between atoms: _115  and  _116
REMARK   47  A    between atoms: _118  and  _120
REMARK   48  A    between atoms: _120  and  _121
REMARK   49  A    between atoms: _124  and  _126
REMARK   50  A    between atoms: _126  and  _127
REMARK   51  A    between atoms: _130  and  _132
REMARK   52  A    between atoms: _132  and  _133
REMARK   53  A    between atoms: _136  and  _138
REMARK   54  A    between atoms: _138  and  _139
REMARK   55  A    between atoms: _138  and  _141
REMARK   56  A    between atoms: _141  and  _142
REMARK   57  A    between atoms: _144  and  _146
REMARK   58  A    between atoms: _146  and  _147
REMARK   59  A    between atoms: _146  and  _149
REMARK   60  A    between atoms: _149  and  _150
REMARK   61  A    between atoms: _150  and  _151
REMARK   62  A    between atoms: _154  and  _156
REMARK   63  A    between atoms: _156  and  _157
REMARK   64  A    between atoms: _156  and  _159
REMARK   65  A    between atoms: _159  and  _160
REMARK   66  A    between atoms: _163  and  _165
REMARK   67  A    between atoms: _165  and  _166
REMARK   68  A    between atoms: _169  and  _171
REMARK   69  A    between atoms: _171  and  _172
REMARK   70  A    between atoms: _171  and  _174
REMARK   71  A    between atoms: _174  and  _175
REMARK   72  A    between atoms: _181  and  _183
REMARK   73  A    between atoms: _183  and  _184
REMARK   74  A    between atoms: _183  and  _186
REMARK   75  A    between atoms: _186  and  _187
REMARK   76  A    between atoms: _192  and  _193
REMARK   77  A    between atoms: _195  and  _197
REMARK   78  A    between atoms: _197  and  _198
REMARK   79  A    between atoms: _201  and  _203
REMARK   80  A    between atoms: _203  and  _204
REMARK   81  A    between atoms: _203  and  _206
REMARK   82  A    between atoms: _206  and  _207
REMARK   83  A    between atoms: _210  and  _212
REMARK   84  A    between atoms: _212  and  _213
REMARK   85  A    between atoms: _216  and  _218
REMARK   86  A    between atoms: _218  and  _219
REMARK   87  A    between atoms: _218  and  _221
REMARK   88  A    between atoms: _221  and  _222
REMARK   89  A    between atoms: _228  and  _230
REMARK   90  A    between atoms: _230  and  _231
REMARK   91  A    between atoms: _230  and  _233
REMARK   92  A    between atoms: _233  and  _234
REMARK   93  A    between atoms: _234  and  _235
REMARK   94  A    between atoms: _238  and  _240
REMARK   95  A    between atoms: _240  and  _241
REMARK   96  A    between atoms: _240  and  _243
REMARK   97  A    between atoms: _243  and  _244
REMARK   98  A    between atoms: _244  and  _245
REMARK   99  A    between atoms: _247  and  _249
REMARK  100  A    between atoms: _249  and  _250
REMARK  101  A    between atoms: _249  and  _252
REMARK  102  A    between atoms: _252  and  _253
REMARK  103  A    between atoms: _253  and  _254
REMARK  104  A    between atoms: _257  and  _259
REMARK  105  A    between atoms: _259  and  _260
REMARK  106  A    between atoms: _263  and  _265
REMARK  107  A    between atoms: _265  and  _266
REMARK  108  A    between atoms: _265  and  _268
REMARK  109  A    between atoms: _268  and  _269
REMARK  110  A    between atoms: _272  and  _274
REMARK  111  A    between atoms: _274  and  _275
REMARK  112  A    between atoms: _278  and  _280
REMARK  113  A    between atoms: _280  and  _281
REMARK  114  A    between atoms: _280  and  _283
REMARK  115  A    between atoms: _286  and  _288
REMARK  116  A    between atoms: _288  and  _289
REMARK  117  A    between atoms: _288  and  _291
REMARK  118  A    between atoms: _291  and  _292
REMARK  119  A    between atoms: _294  and  _296
REMARK  120  A    between atoms: _296  and  _297
REMARK  121  A    between atoms: _296  and  _299
REMARK  122  A    between atoms: _299  and  _300
REMARK  123  A    between atoms: _305  and  _307
REMARK  124  A    between atoms: _307  and  _308
REMARK  125  A    between atoms: _307  and  _310
REMARK  126  A    between atoms: _310  and  _311
REMARK  127  A    between atoms: _311  and  _312
REMARK  128  A    between atoms: _312  and  _313
REMARK  129  A    between atoms: _322  and  _324
REMARK  130  A    between atoms: _324  and  _325
REMARK  131  A    between atoms: _324  and  _327
REMARK  132  A    between atoms: _327  and  _328
REMARK  133  A    between atoms: _331  and  _333
REMARK  134  A    between atoms: _333  and  _334
REMARK  135  A    between atoms: _336  and  _338
REMARK  136  A    between atoms: _338  and  _339
REMARK  137  A    between atoms: _338  and  _341
REMARK  138  A    between atoms: _341  and  _342
REMARK  139  A    between atoms: _345  and  _347
REMARK  140  A    between atoms: _347  and  _348
REMARK  141  A    between atoms: _347  and  _350
REMARK  142  A    between atoms: _350  and  _351
REMARK  143  A    between atoms: _354  and  _356
REMARK  144  A    between atoms: _356  and  _357
REMARK  145  A    between atoms: _360  and  _362
REMARK  146  A    between atoms: _362  and  _363
REMARK  147  A    between atoms: _362  and  _365
REMARK  148  A    between atoms: _365  and  _366
REMARK  149  A    between atoms: _369  and  _371
REMARK  150  A    between atoms: _371  and  _372
REMARK  151  A    between atoms: _371  and  _374
REMARK  152  A    between atoms: _374  and  _375
REMARK  153  A    between atoms: _380  and  _382
REMARK  154  A    between atoms: _382  and  _383
REMARK  155  A    between atoms: _382  and  _385
REMARK  156  A    between atoms: _385  and  _386
REMARK  157  A    between atoms: _386  and  _387
REMARK  158  A    between atoms: _387  and  _388
REMARK  159  A    between atoms: _397  and  _399
REMARK  160  A    between atoms: _399  and  _400
REMARK  161  A    between atoms: _399  and  _402
REMARK  162  A    between atoms: _402  and  _403
REMARK  163  A    between atoms: _408  and  _410
REMARK  164  A    between atoms: _410  and  _411
REMARK  165  A    between atoms: _410  and  _413
REMARK  166  A    between atoms: _413  and  _414
REMARK  167  A    between atoms: _414  and  _415
REMARK  168  A    between atoms: _415  and  _416
REMARK  169  A    between atoms: _426  and  _427
REMARK  170  A    between atoms: _432  and  _434
REMARK  171  A    between atoms: _434  and  _435
REMARK  172  A    between atoms: _434  and  _437
REMARK  173  A    between atoms: _437  and  _438
REMARK  174  A    between atoms: _440  and  _442
REMARK  175  A    between atoms: _442  and  _443
REMARK  176  A    between atoms: _442  and  _445
REMARK  177  A    between atoms: _445  and  _446
REMARK  178  A    between atoms: _449  and  _451
REMARK  179  A    between atoms: _451  and  _452
REMARK  180  A    between atoms: _451  and  _454
REMARK  181  A    between atoms: _454  and  _455
REMARK  182  A    between atoms: _455  and  _456
REMARK  183  A    between atoms: _459  and  _461
REMARK  184  A    between atoms: _461  and  _462
REMARK  185  A    between atoms: _461  and  _464
REMARK  186  A    between atoms: _464  and  _465
REMARK  187  A    between atoms: _465  and  _466
REMARK                            x       y       z     vdW  Elec       q    Type
REMARK                         _______ _______ _______ _____ _____    ______ ____
ROOT
ATOM      1  O   HOH     1      -2.443 -84.183-139.563  0.00  0.00    +0.000 OA
ENDROOT
TORSDOF 0
REMARK  Name = ../refined-set-2016/1odi/1odi_pocket.pdb
REMARK  187 active torsions:
REMARK  status: ('A' for Active; 'I' for Inactive)
REMARK    1  A    between atoms: _2  and  _3
REMARK    2  A    between atoms: _8  and  _10
REMARK    3  A    between atoms: _10  and  _11
REMARK    4  A    between atoms: _13  and  _15
REMARK    5  A    between atoms: _15  and  _16
REMARK    6  A    between atoms: _15  and  _18
REMARK    7  A    between atoms: _18  and  _19
REMARK    8  A    between atoms: _22  and  _24
REMARK    9  A    between atoms: _24  and  _25
REMARK   10  A    between atoms: _24  and  _27
REMARK   11  A    between atoms: _27  and  _28
REMARK   12  A    between atoms: _28  and  _29
REMARK   13  A    between atoms: _29  and  _30
REMARK   14  A    between atoms: _39  and  _41
REMARK   15  A    between atoms: _41  and  _42
REMARK   16  A    between atoms: _41  and  _44
REMARK   17  A    between atoms: _44  and  _45
REMARK   18  A    between atoms: _48  and  _50
REMARK   19  A    between atoms: _50  and  _51
REMARK   20  A    between atoms: _53  and  _55
REMARK   21  A    between atoms: _55  and  _56
REMARK   22  A    between atoms: _55  and  _58
REMARK   23  A    between atoms: _58  and  _59
REMARK   24  A    between atoms: _59  and  _60
REMARK   25  A    between atoms: _62  and  _64
REMARK   26  A    between atoms: _64  and  _65
REMARK   27  A    between atoms: _67  and  _69
REMARK   28  A    between atoms: _69  and  _70
REMARK   29  A    between atoms: _69  and  _72
REMARK   30  A    between atoms: _72  and  _73
REMARK   31  A    between atoms: _76  and  _78
REMARK   32  A    between atoms: _78  and  _79
REMARK   33  A    between atoms: _78  and  _81
REMARK   34  A    between atoms: _81  and  _82
REMARK   35  A    between atoms: _82  and  _83
REMARK   36  A    between atoms: _83  and  _84
REMARK   37  A    between atoms: _93  and  _95
REMARK   38  A    between atoms: _95  and  _96
REMARK   39  A    between atoms: _98  and  _100
REMARK   40  A    between atoms: _100  and  _101
REMARK   41  A    between atoms: _100  and  _103
REMARK   42  A    between atoms: _103  and  _104
REMARK   43  A    between atoms: _107  and  _109
REMARK   44  A    between atoms: _109  and  _110
REMARK   45  A    between atoms: _113  and  _115
REMARK   46  A    between atoms: _115  and  _116
REMARK   47  A    between atoms: _118  and  _120
REMARK   48  A    between atoms: _120  and  _121
REMARK   49  A    between atoms: _124  and  _126
REMARK   50  A    between atoms: _126  and  _127
REMARK   51  A    between atoms: _130  and  _132
REMARK   52  A    between atoms: _132  and  _133
REMARK   53  A    between atoms: _136  and  _138
REMARK   54  A    between atoms: _138  and  _139
REMARK   55  A    between atoms: _138  and  _141
REMARK   56  A    between atoms: _141  and  _142
REMARK   57  A    between atoms: _144  and  _146
REMARK   58  A    between atoms: _146  and  _147
REMARK   59  A    between atoms: _146  and  _149
REMARK   60  A    between atoms: _149  and  _150
REMARK   61  A    between atoms: _150  and  _151
REMARK   62  A    between atoms: _154  and  _156
REMARK   63  A    between atoms: _156  and  _157
REMARK   64  A    between atoms: _156  and  _159
REMARK   65  A    between atoms: _159  and  _160
REMARK   66  A    between atoms: _163  and  _165
REMARK   67  A    between atoms: _165  and  _166
REMARK   68  A    between atoms: _169  and  _171
REMARK   69  A    between atoms: _171  and  _172
REMARK   70  A    between atoms: _171  and  _174
REMARK   71  A    between atoms: _174  and  _175
REMARK   72  A    between atoms: _181  and  _183
REMARK   73  A    between atoms: _183  and  _184
REMARK   74  A    between atoms: _183  and  _186
REMARK   75  A    between atoms: _186  and  _187
REMARK   76  A    between atoms: _192  and  _193
REMARK   77  A    between atoms: _195  and  _197
REMARK   78  A    between atoms: _197  and  _198
REMARK   79  A    between atoms: _201  and  _203
REMARK   80  A    between atoms: _203  and  _204
REMARK   81  A    between atoms: _203  and  _206
REMARK   82  A    between atoms: _206  and  _207
REMARK   83  A    between atoms: _210  and  _212
REMARK   84  A    between atoms: _212  and  _213
REMARK   85  A    between atoms: _216  and  _218
REMARK   86  A    between atoms: _218  and  _219
REMARK   87  A    between atoms: _218  and  _221
REMARK   88  A    between atoms: _221  and  _222
REMARK   89  A    between atoms: _228  and  _230
REMARK   90  A    between atoms: _230  and  _231
REMARK   91  A    between atoms: _230  and  _233
REMARK   92  A    between atoms: _233  and  _234
REMARK   93  A    between atoms: _234  and  _235
REMARK   94  A    between atoms: _238  and  _240
REMARK   95  A    between atoms: _240  and  _241
REMARK   96  A    between atoms: _240  and  _243
REMARK   97  A    between atoms: _243  and  _244
REMARK   98  A    between atoms: _244  and  _245
REMARK   99  A    between atoms: _247  and  _249
REMARK  100  A    between atoms: _249  and  _250
REMARK  101  A    between atoms: _249  and  _252
REMARK  102  A    between atoms: _252  and  _253
REMARK  103  A    between atoms: _253  and  _254
REMARK  104  A    between atoms: _257  and  _259
REMARK  105  A    between atoms: _259  and  _260
REMARK  106  A    between atoms: _263  and  _265
REMARK  107  A    between atoms: _265  and  _266
REMARK  108  A    between atoms: _265  and  _268
REMARK  109  A    between atoms: _268  and  _269
REMARK  110  A    between atoms: _272  and  _274
REMARK  111  A    between atoms: _274  and  _275
REMARK  112  A    between atoms: _278  and  _280
REMARK  113  A    between atoms: _280  and  _281
REMARK  114  A    between atoms: _280  and  _283
REMARK  115  A    between atoms: _286  and  _288
REMARK  116  A    between atoms: _288  and  _289
REMARK  117  A    between atoms: _288  and  _291
REMARK  118  A    between atoms: _291  and  _292
REMARK  119  A    between atoms: _294  and  _296
REMARK  120  A    between atoms: _296  and  _297
REMARK  121  A    between atoms: _296  and  _299
REMARK  122  A    between atoms: _299  and  _300
REMARK  123  A    between atoms: _305  and  _307
REMARK  124  A    between atoms: _307  and  _308
REMARK  125  A    between atoms: _307  and  _310
REMARK  126  A    between atoms: _310  and  _311
REMARK  127  A    between atoms: _311  and  _312
REMARK  128  A    between atoms: _312  and  _313
REMARK  129  A    between atoms: _322  and  _324
REMARK  130  A    between atoms: _324  and  _325
REMARK  131  A    between atoms: _324  and  _327
REMARK  132  A    between atoms: _327  and  _328
REMARK  133  A    between atoms: _331  and  _333
REMARK  134  A    between atoms: _333  and  _334
REMARK  135  A    between atoms: _336  and  _338
REMARK  136  A    between atoms: _338  and  _339
REMARK  137  A    between atoms: _338  and  _341
REMARK  138  A    between atoms: _341  and  _342
REMARK  139  A    between atoms: _345  and  _347
REMARK  140  A    between atoms: _347  and  _348
REMARK  141  A    between atoms: _347  and  _350
REMARK  142  A    between atoms: _350  and  _351
REMARK  143  A    between atoms: _354  and  _356
REMARK  144  A    between atoms: _356  and  _357
REMARK  145  A    between atoms: _360  and  _362
REMARK  146  A    between atoms: _362  and  _363
REMARK  147  A    between atoms: _362  and  _365
REMARK  148  A    between atoms: _365  and  _366
REMARK  149  A    between atoms: _369  and  _371
REMARK  150  A    between atoms: _371  and  _372
REMARK  151  A    between atoms: _371  and  _374
REMARK  152  A    between atoms: _374  and  _375
REMARK  153  A    between atoms: _380  and  _382
REMARK  154  A    between atoms: _382  and  _383
REMARK  155  A    between atoms: _382  and  _385
REMARK  156  A    between atoms: _385  and  _386
REMARK  157  A    between atoms: _386  and  _387
REMARK  158  A    between atoms: _387  and  _388
REMARK  159  A    between atoms: _397  and  _399
REMARK  160  A    between atoms: _399  and  _400
REMARK  161  A    between atoms: _399  and  _402
REMARK  162  A    between atoms: _402  and  _403
REMARK  163  A    between atoms: _408  and  _410
REMARK  164  A    between atoms: _410  and  _411
REMARK  165  A    between atoms: _410  and  _413
REMARK  166  A    between atoms: _413  and  _414
REMARK  167  A    between atoms: _414  and  _415
REMARK  168  A    between atoms: _415  and  _416
REMARK  169  A    between atoms: _426  and  _427
REMARK  170  A    between atoms: _432  and  _434
REMARK  171  A    between atoms: _434  and  _435
REMARK  172  A    between atoms: _434  and  _437
REMARK  173  A    between atoms: _437  and  _438
REMARK  174  A    between atoms: _440  and  _442
REMARK  175  A    between atoms: _442  and  _443
REMARK  176  A    between atoms: _442  and  _445
REMARK  177  A    between atoms: _445  and  _446
REMARK  178  A    between atoms: _449  and  _451
REMARK  179  A    between atoms: _451  and  _452
REMARK  180  A    between atoms: _451  and  _454
REMARK  181  A    between atoms: _454  and  _455
REMARK  182  A    between atoms: _455  and  _456
REMARK  183  A    between atoms: _459  and  _461
REMARK  184  A    between atoms: _461  and  _462
REMARK  185  A    between atoms: _461  and  _464
REMARK  186  A    between atoms: _464  and  _465
REMARK  187  A    between atoms: _465  and  _466
REMARK                            x       y       z     vdW  Elec       q    Type
REMARK                         _______ _______ _______ _____ _____    ______ ____
ROOT
ATOM      1  O   HOH     1      -2.262 -78.175-146.775  0.00  0.00    +0.000 OA
ENDROOT
TORSDOF 0
REMARK  Name = ../refined-set-2016/1odi/1odi_pocket.pdb
REMARK  187 active torsions:
REMARK  status: ('A' for Active; 'I' for Inactive)
REMARK    1  A    between atoms: _2  and  _3
REMARK    2  A    between atoms: _8  and  _10
REMARK    3  A    between atoms: _10  and  _11
REMARK    4  A    between atoms: _13  and  _15
REMARK    5  A    between atoms: _15  and  _16
REMARK    6  A    between atoms: _15  and  _18
REMARK    7  A    between atoms: _18  and  _19
REMARK    8  A    between atoms: _22  and  _24
REMARK    9  A    between atoms: _24  and  _25
REMARK   10  A    between atoms: _24  and  _27
REMARK   11  A    between atoms: _27  and  _28
REMARK   12  A    between atoms: _28  and  _29
REMARK   13  A    between atoms: _29  and  _30
REMARK   14  A    between atoms: _39  and  _41
REMARK   15  A    between atoms: _41  and  _42
REMARK   16  A    between atoms: _41  and  _44
REMARK   17  A    between atoms: _44  and  _45
REMARK   18  A    between atoms: _48  and  _50
REMARK   19  A    between atoms: _50  and  _51
REMARK   20  A    between atoms: _53  and  _55
REMARK   21  A    between atoms: _55  and  _56
REMARK   22  A    between atoms: _55  and  _58
REMARK   23  A    between atoms: _58  and  _59
REMARK   24  A    between atoms: _59  and  _60
REMARK   25  A    between atoms: _62  and  _64
REMARK   26  A    between atoms: _64  and  _65
REMARK   27  A    between atoms: _67  and  _69
REMARK   28  A    between atoms: _69  and  _70
REMARK   29  A    between atoms: _69  and  _72
REMARK   30  A    between atoms: _72  and  _73
REMARK   31  A    between atoms: _76  and  _78
REMARK   32  A    between atoms: _78  and  _79
REMARK   33  A    between atoms: _78  and  _81
REMARK   34  A    between atoms: _81  and  _82
REMARK   35  A    between atoms: _82  and  _83
REMARK   36  A    between atoms: _83  and  _84
REMARK   37  A    between atoms: _93  and  _95
REMARK   38  A    between atoms: _95  and  _96
REMARK   39  A    between atoms: _98  and  _100
REMARK   40  A    between atoms: _100  and  _101
REMARK   41  A    between atoms: _100  and  _103
REMARK   42  A    between atoms: _103  and  _104
REMARK   43  A    between atoms: _107  and  _109
REMARK   44  A    between atoms: _109  and  _110
REMARK   45  A    between atoms: _113  and  _115
REMARK   46  A    between atoms: _115  and  _116
REMARK   47  A    between atoms: _118  and  _120
REMARK   48  A    between atoms: _120  and  _121
REMARK   49  A    between atoms: _124  and  _126
REMARK   50  A    between atoms: _126  and  _127
REMARK   51  A    between atoms: _130  and  _132
REMARK   52  A    between atoms: _132  and  _133
REMARK   53  A    between atoms: _136  and  _138
REMARK   54  A    between atoms: _138  and  _139
REMARK   55  A    between atoms: _138  and  _141
REMARK   56  A    between atoms: _141  and  _142
REMARK   57  A    between atoms: _144  and  _146
REMARK   58  A    between atoms: _146  and  _147
REMARK   59  A    between atoms: _146  and  _149
REMARK   60  A    between atoms: _149  and  _150
REMARK   61  A    between atoms: _150  and  _151
REMARK   62  A    between atoms: _154  and  _156
REMARK   63  A    between atoms: _156  and  _157
REMARK   64  A    between atoms: _156  and  _159
REMARK   65  A    between atoms: _159  and  _160
REMARK   66  A    between atoms: _163  and  _165
REMARK   67  A    between atoms: _165  and  _166
REMARK   68  A    between atoms: _169  and  _171
REMARK   69  A    between atoms: _171  and  _172
REMARK   70  A    between atoms: _171  and  _174
REMARK   71  A    between atoms: _174  and  _175
REMARK   72  A    between atoms: _181  and  _183
REMARK   73  A    between atoms: _183  and  _184
REMARK   74  A    between atoms: _183  and  _186
REMARK   75  A    between atoms: _186  and  _187
REMARK   76  A    between atoms: _192  and  _193
REMARK   77  A    between atoms: _195  and  _197
REMARK   78  A    between atoms: _197  and  _198
REMARK   79  A    between atoms: _201  and  _203
REMARK   80  A    between atoms: _203  and  _204
REMARK   81  A    between atoms: _203  and  _206
REMARK   82  A    between atoms: _206  and  _207
REMARK   83  A    between atoms: _210  and  _212
REMARK   84  A    between atoms: _212  and  _213
REMARK   85  A    between atoms: _216  and  _218
REMARK   86  A    between atoms: _218  and  _219
REMARK   87  A    between atoms: _218  and  _221
REMARK   88  A    between atoms: _221  and  _222
REMARK   89  A    between atoms: _228  and  _230
REMARK   90  A    between atoms: _230  and  _231
REMARK   91  A    between atoms: _230  and  _233
REMARK   92  A    between atoms: _233  and  _234
REMARK   93  A    between atoms: _234  and  _235
REMARK   94  A    between atoms: _238  and  _240
REMARK   95  A    between atoms: _240  and  _241
REMARK   96  A    between atoms: _240  and  _243
REMARK   97  A    between atoms: _243  and  _244
REMARK   98  A    between atoms: _244  and  _245
REMARK   99  A    between atoms: _247  and  _249
REMARK  100  A    between atoms: _249  and  _250
REMARK  101  A    between atoms: _249  and  _252
REMARK  102  A    between atoms: _252  and  _253
REMARK  103  A    between atoms: _253  and  _254
REMARK  104  A    between atoms: _257  and  _259
REMARK  105  A    between atoms: _259  and  _260
REMARK  106  A    between atoms: _263  and  _265
REMARK  107  A    between atoms: _265  and  _266
REMARK  108  A    between atoms: _265  and  _268
REMARK  109  A    between atoms: _268  and  _269
REMARK  110  A    between atoms: _272  and  _274
REMARK  111  A    between atoms: _274  and  _275
REMARK  112  A    between atoms: _278  and  _280
REMARK  113  A    between atoms: _280  and  _281
REMARK  114  A    between atoms: _280  and  _283
REMARK  115  A    between atoms: _286  and  _288
REMARK  116  A    between atoms: _288  and  _289
REMARK  117  A    between atoms: _288  and  _291
REMARK  118  A    between atoms: _291  and  _292
REMARK  119  A    between atoms: _294  and  _296
REMARK  120  A    between atoms: _296  and  _297
REMARK  121  A    between atoms: _296  and  _299
REMARK  122  A    between atoms: _299  and  _300
REMARK  123  A    between atoms: _305  and  _307
REMARK  124  A    between atoms: _307  and  _308
REMARK  125  A    between atoms: _307  and  _310
REMARK  126  A    between atoms: _310  and  _311
REMARK  127  A    between atoms: _311  and  _312
REMARK  128  A    between atoms: _312  and  _313
REMARK  129  A    between atoms: _322  and  _324
REMARK  130  A    between atoms: _324  and  _325
REMARK  131  A    between atoms: _324  and  _327
REMARK  132  A    between atoms: _327  and  _328
REMARK  133  A    between atoms: _331  and  _333
REMARK  134  A    between atoms: _333  and  _334
REMARK  135  A    between atoms: _336  and  _338
REMARK  136  A    between atoms: _338  and  _339
REMARK  137  A    between atoms: _338  and  _341
REMARK  138  A    between atoms: _341  and  _342
REMARK  139  A    between atoms: _345  and  _347
REMARK  140  A    between atoms: _347  and  _348
REMARK  141  A    between atoms: _347  and  _350
REMARK  142  A    between atoms: _350  and  _351
REMARK  143  A    between atoms: _354  and  _356
REMARK  144  A    between atoms: _356  and  _357
REMARK  145  A    between atoms: _360  and  _362
REMARK  146  A    between atoms: _362  and  _363
REMARK  147  A    between atoms: _362  and  _365
REMARK  148  A    between atoms: _365  and  _366
REMARK  149  A    between atoms: _369  and  _371
REMARK  150  A    between atoms: _371  and  _372
REMARK  151  A    between atoms: _371  and  _374
REMARK  152  A    between atoms: _374  and  _375
REMARK  153  A    between atoms: _380  and  _382
REMARK  154  A    between atoms: _382  and  _383
REMARK  155  A    between atoms: _382  and  _385
REMARK  156  A    between atoms: _385  and  _386
REMARK  157  A    between atoms: _386  and  _387
REMARK  158  A    between atoms: _387  and  _388
REMARK  159  A    between atoms: _397  and  _399
REMARK  160  A    between atoms: _399  and  _400
REMARK  161  A    between atoms: _399  and  _402
REMARK  162  A    between atoms: _402  and  _403
REMARK  163  A    between atoms: _408  and  _410
REMARK  164  A    between atoms: _410  and  _411
REMARK  165  A    between atoms: _410  and  _413
REMARK  166  A    between atoms: _413  and  _414
REMARK  167  A    between atoms: _414  and  _415
REMARK  168  A    between atoms: _415  and  _416
REMARK  169  A    between atoms: _426  and  _427
REMARK  170  A    between atoms: _432  and  _434
REMARK  171  A    between atoms: _434  and  _435
REMARK  172  A    between atoms: _434  and  _437
REMARK  173  A    between atoms: _437  and  _438
REMARK  174  A    between atoms: _440  and  _442
REMARK  175  A    between atoms: _442  and  _443
REMARK  176  A    between atoms: _442  and  _445
REMARK  177  A    between atoms: _445  and  _446
REMARK  178  A    between atoms: _449  and  _451
REMARK  179  A    between atoms: _451  and  _452
REMARK  180  A    between atoms: _451  and  _454
REMARK  181  A    between atoms: _454  and  _455
REMARK  182  A    between atoms: _455  and  _456
REMARK  183  A    between atoms: _459  and  _461
REMARK  184  A    between atoms: _461  and  _462
REMARK  185  A    between atoms: _461  and  _464
REMARK  186  A    between atoms: _464  and  _465
REMARK  187  A    between atoms: _465  and  _466
REMARK                            x       y       z     vdW  Elec       q    Type
REMARK                         _______ _______ _______ _____ _____    ______ ____
ROOT
ATOM      1  O   HOH     1      -3.242 -75.258-149.288  0.00  0.00    +0.000 OA
ENDROOT
TORSDOF 0
REMARK  Name = ../refined-set-2016/1odi/1odi_pocket.pdb
REMARK  187 active torsions:
REMARK  status: ('A' for Active; 'I' for Inactive)
REMARK    1  A    between atoms: _2  and  _3
REMARK    2  A    between atoms: _8  and  _10
REMARK    3  A    between atoms: _10  and  _11
REMARK    4  A    between atoms: _13  and  _15
REMARK    5  A    between atoms: _15  and  _16
REMARK    6  A    between atoms: _15  and  _18
REMARK    7  A    between atoms: _18  and  _19
REMARK    8  A    between atoms: _22  and  _24
REMARK    9  A    between atoms: _24  and  _25
REMARK   10  A    between atoms: _24  and  _27
REMARK   11  A    between atoms: _27  and  _28
REMARK   12  A    between atoms: _28  and  _29
REMARK   13  A    between atoms: _29  and  _30
REMARK   14  A    between atoms: _39  and  _41
REMARK   15  A    between atoms: _41  and  _42
REMARK   16  A    between atoms: _41  and  _44
REMARK   17  A    between atoms: _44  and  _45
REMARK   18  A    between atoms: _48  and  _50
REMARK   19  A    between atoms: _50  and  _51
REMARK   20  A    between atoms: _53  and  _55
REMARK   21  A    between atoms: _55  and  _56
REMARK   22  A    between atoms: _55  and  _58
REMARK   23  A    between atoms: _58  and  _59
REMARK   24  A    between atoms: _59  and  _60
REMARK   25  A    between atoms: _62  and  _64
REMARK   26  A    between atoms: _64  and  _65
REMARK   27  A    between atoms: _67  and  _69
REMARK   28  A    between atoms: _69  and  _70
REMARK   29  A    between atoms: _69  and  _72
REMARK   30  A    between atoms: _72  and  _73
REMARK   31  A    between atoms: _76  and  _78
REMARK   32  A    between atoms: _78  and  _79
REMARK   33  A    between atoms: _78  and  _81
REMARK   34  A    between atoms: _81  and  _82
REMARK   35  A    between atoms: _82  and  _83
REMARK   36  A    between atoms: _83  and  _84
REMARK   37  A    between atoms: _93  and  _95
REMARK   38  A    between atoms: _95  and  _96
REMARK   39  A    between atoms: _98  and  _100
REMARK   40  A    between atoms: _100  and  _101
REMARK   41  A    between atoms: _100  and  _103
REMARK   42  A    between atoms: _103  and  _104
REMARK   43  A    between atoms: _107  and  _109
REMARK   44  A    between atoms: _109  and  _110
REMARK   45  A    between atoms: _113  and  _115
REMARK   46  A    between atoms: _115  and  _116
REMARK   47  A    between atoms: _118  and  _120
REMARK   48  A    between atoms: _120  and  _121
REMARK   49  A    between atoms: _124  and  _126
REMARK   50  A    between atoms: _126  and  _127
REMARK   51  A    between atoms: _130  and  _132
REMARK   52  A    between atoms: _132  and  _133
REMARK   53  A    between atoms: _136  and  _138
REMARK   54  A    between atoms: _138  and  _139
REMARK   55  A    between atoms: _138  and  _141
REMARK   56  A    between atoms: _141  and  _142
REMARK   57  A    between atoms: _144  and  _146
REMARK   58  A    between atoms: _146  and  _147
REMARK   59  A    between atoms: _146  and  _149
REMARK   60  A    between atoms: _149  and  _150
REMARK   61  A    between atoms: _150  and  _151
REMARK   62  A    between atoms: _154  and  _156
REMARK   63  A    between atoms: _156  and  _157
REMARK   64  A    between atoms: _156  and  _159
REMARK   65  A    between atoms: _159  and  _160
REMARK   66  A    between atoms: _163  and  _165
REMARK   67  A    between atoms: _165  and  _166
REMARK   68  A    between atoms: _169  and  _171
REMARK   69  A    between atoms: _171  and  _172
REMARK   70  A    between atoms: _171  and  _174
REMARK   71  A    between atoms: _174  and  _175
REMARK   72  A    between atoms: _181  and  _183
REMARK   73  A    between atoms: _183  and  _184
REMARK   74  A    between atoms: _183  and  _186
REMARK   75  A    between atoms: _186  and  _187
REMARK   76  A    between atoms: _192  and  _193
REMARK   77  A    between atoms: _195  and  _197
REMARK   78  A    between atoms: _197  and  _198
REMARK   79  A    between atoms: _201  and  _203
REMARK   80  A    between atoms: _203  and  _204
REMARK   81  A    between atoms: _203  and  _206
REMARK   82  A    between atoms: _206  and  _207
REMARK   83  A    between atoms: _210  and  _212
REMARK   84  A    between atoms: _212  and  _213
REMARK   85  A    between atoms: _216  and  _218
REMARK   86  A    between atoms: _218  and  _219
REMARK   87  A    between atoms: _218  and  _221
REMARK   88  A    between atoms: _221  and  _222
REMARK   89  A    between atoms: _228  and  _230
REMARK   90  A    between atoms: _230  and  _231
REMARK   91  A    between atoms: _230  and  _233
REMARK   92  A    between atoms: _233  and  _234
REMARK   93  A    between atoms: _234  and  _235
REMARK   94  A    between atoms: _238  and  _240
REMARK   95  A    between atoms: _240  and  _241
REMARK   96  A    between atoms: _240  and  _243
REMARK   97  A    between atoms: _243  and  _244
REMARK   98  A    between atoms: _244  and  _245
REMARK   99  A    between atoms: _247  and  _249
REMARK  100  A    between atoms: _249  and  _250
REMARK  101  A    between atoms: _249  and  _252
REMARK  102  A    between atoms: _252  and  _253
REMARK  103  A    between atoms: _253  and  _254
REMARK  104  A    between atoms: _257  and  _259
REMARK  105  A    between atoms: _259  and  _260
REMARK  106  A    between atoms: _263  and  _265
REMARK  107  A    between atoms: _265  and  _266
REMARK  108  A    between atoms: _265  and  _268
REMARK  109  A    between atoms: _268  and  _269
REMARK  110  A    between atoms: _272  and  _274
REMARK  111  A    between atoms: _274  and  _275
REMARK  112  A    between atoms: _278  and  _280
REMARK  113  A    between atoms: _280  and  _281
REMARK  114  A    between atoms: _280  and  _283
REMARK  115  A    between atoms: _286  and  _288
REMARK  116  A    between atoms: _288  and  _289
REMARK  117  A    between atoms: _288  and  _291
REMARK  118  A    between atoms: _291  and  _292
REMARK  119  A    between atoms: _294  and  _296
REMARK  120  A    between atoms: _296  and  _297
REMARK  121  A    between atoms: _296  and  _299
REMARK  122  A    between atoms: _299  and  _300
REMARK  123  A    between atoms: _305  and  _307
REMARK  124  A    between atoms: _307  and  _308
REMARK  125  A    between atoms: _307  and  _310
REMARK  126  A    between atoms: _310  and  _311
REMARK  127  A    between atoms: _311  and  _312
REMARK  128  A    between atoms: _312  and  _313
REMARK  129  A    between atoms: _322  and  _324
REMARK  130  A    between atoms: _324  and  _325
REMARK  131  A    between atoms: _324  and  _327
REMARK  132  A    between atoms: _327  and  _328
REMARK  133  A    between atoms: _331  and  _333
REMARK  134  A    between atoms: _333  and  _334
REMARK  135  A    between atoms: _336  and  _338
REMARK  136  A    between atoms: _338  and  _339
REMARK  137  A    between atoms: _338  and  _341
REMARK  138  A    between atoms: _341  and  _342
REMARK  139  A    between atoms: _345  and  _347
REMARK  140  A    between atoms: _347  and  _348
REMARK  141  A    between atoms: _347  and  _350
REMARK  142  A    between atoms: _350  and  _351
REMARK  143  A    between atoms: _354  and  _356
REMARK  144  A    between atoms: _356  and  _357
REMARK  145  A    between atoms: _360  and  _362
REMARK  146  A    between atoms: _362  and  _363
REMARK  147  A    between atoms: _362  and  _365
REMARK  148  A    between atoms: _365  and  _366
REMARK  149  A    between atoms: _369  and  _371
REMARK  150  A    between atoms: _371  and  _372
REMARK  151  A    between atoms: _371  and  _374
REMARK  152  A    between atoms: _374  and  _375
REMARK  153  A    between atoms: _380  and  _382
REMARK  154  A    between atoms: _382  and  _383
REMARK  155  A    between atoms: _382  and  _385
REMARK  156  A    between atoms: _385  and  _386
REMARK  157  A    between atoms: _386  and  _387
REMARK  158  A    between atoms: _387  and  _388
REMARK  159  A    between atoms: _397  and  _399
REMARK  160  A    between atoms: _399  and  _400
REMARK  161  A    between atoms: _399  and  _402
REMARK  162  A    between atoms: _402  and  _403
REMARK  163  A    between atoms: _408  and  _410
REMARK  164  A    between atoms: _410  and  _411
REMARK  165  A    between atoms: _410  and  _413
REMARK  166  A    between atoms: _413  and  _414
REMARK  167  A    between atoms: _414  and  _415
REMARK  168  A    between atoms: _415  and  _416
REMARK  169  A    between atoms: _426  and  _427
REMARK  170  A    between atoms: _432  and  _434
REMARK  171  A    between atoms: _434  and  _435
REMARK  172  A    between atoms: _434  and  _437
REMARK  173  A    between atoms: _437  and  _438
REMARK  174  A    between atoms: _440  and  _442
REMARK  175  A    between atoms: _442  and  _443
REMARK  176  A    between atoms: _442  and  _445
REMARK  177  A    between atoms: _445  and  _446
REMARK  178  A    between atoms: _449  and  _451
REMARK  179  A    between atoms: _451  and  _452
REMARK  180  A    between atoms: _451  and  _454
REMARK  181  A    between atoms: _454  and  _455
REMARK  182  A    between atoms: _455  and  _456
REMARK  183  A    between atoms: _459  and  _461
REMARK  184  A    between atoms: _461  and  _462
REMARK  185  A    between atoms: _461  and  _464
REMARK  186  A    between atoms: _464  and  _465
REMARK  187  A    between atoms: _465  and  _466
REMARK                            x       y       z     vdW  Elec       q    Type
REMARK                         _______ _______ _______ _____ _____    ______ ____
ROOT
ATOM      1  O   HOH     1      -3.885 -78.230-149.005  0.00  0.00    +0.000 OA
ENDROOT
TORSDOF 0
REMARK  Name = ../refined-set-2016/1odi/1odi_pocket.pdb
REMARK  187 active torsions:
REMARK  status: ('A' for Active; 'I' for Inactive)
REMARK    1  A    between atoms: _2  and  _3
REMARK    2  A    between atoms: _8  and  _10
REMARK    3  A    between atoms: _10  and  _11
REMARK    4  A    between atoms: _13  and  _15
REMARK    5  A    between atoms: _15  and  _16
REMARK    6  A    between atoms: _15  and  _18
REMARK    7  A    between atoms: _18  and  _19
REMARK    8  A    between atoms: _22  and  _24
REMARK    9  A    between atoms: _24  and  _25
REMARK   10  A    between atoms: _24  and  _27
REMARK   11  A    between atoms: _27  and  _28
REMARK   12  A    between atoms: _28  and  _29
REMARK   13  A    between atoms: _29  and  _30
REMARK   14  A    between atoms: _39  and  _41
REMARK   15  A    between atoms: _41  and  _42
REMARK   16  A    between atoms: _41  and  _44
REMARK   17  A    between atoms: _44  and  _45
REMARK   18  A    between atoms: _48  and  _50
REMARK   19  A    between atoms: _50  and  _51
REMARK   20  A    between atoms: _53  and  _55
REMARK   21  A    between atoms: _55  and  _56
REMARK   22  A    between atoms: _55  and  _58
REMARK   23  A    between atoms: _58  and  _59
REMARK   24  A    between atoms: _59  and  _60
REMARK   25  A    between atoms: _62  and  _64
REMARK   26  A    between atoms: _64  and  _65
REMARK   27  A    between atoms: _67  and  _69
REMARK   28  A    between atoms: _69  and  _70
REMARK   29  A    between atoms: _69  and  _72
REMARK   30  A    between atoms: _72  and  _73
REMARK   31  A    between atoms: _76  and  _78
REMARK   32  A    between atoms: _78  and  _79
REMARK   33  A    between atoms: _78  and  _81
REMARK   34  A    between atoms: _81  and  _82
REMARK   35  A    between atoms: _82  and  _83
REMARK   36  A    between atoms: _83  and  _84
REMARK   37  A    between atoms: _93  and  _95
REMARK   38  A    between atoms: _95  and  _96
REMARK   39  A    between atoms: _98  and  _100
REMARK   40  A    between atoms: _100  and  _101
REMARK   41  A    between atoms: _100  and  _103
REMARK   42  A    between atoms: _103  and  _104
REMARK   43  A    between atoms: _107  and  _109
REMARK   44  A    between atoms: _109  and  _110
REMARK   45  A    between atoms: _113  and  _115
REMARK   46  A    between atoms: _115  and  _116
REMARK   47  A    between atoms: _118  and  _120
REMARK   48  A    between atoms: _120  and  _121
REMARK   49  A    between atoms: _124  and  _126
REMARK   50  A    between atoms: _126  and  _127
REMARK   51  A    between atoms: _130  and  _132
REMARK   52  A    between atoms: _132  and  _133
REMARK   53  A    between atoms: _136  and  _138
REMARK   54  A    between atoms: _138  and  _139
REMARK   55  A    between atoms: _138  and  _141
REMARK   56  A    between atoms: _141  and  _142
REMARK   57  A    between atoms: _144  and  _146
REMARK   58  A    between atoms: _146  and  _147
REMARK   59  A    between atoms: _146  and  _149
REMARK   60  A    between atoms: _149  and  _150
REMARK   61  A    between atoms: _150  and  _151
REMARK   62  A    between atoms: _154  and  _156
REMARK   63  A    between atoms: _156  and  _157
REMARK   64  A    between atoms: _156  and  _159
REMARK   65  A    between atoms: _159  and  _160
REMARK   66  A    between atoms: _163  and  _165
REMARK   67  A    between atoms: _165  and  _166
REMARK   68  A    between atoms: _169  and  _171
REMARK   69  A    between atoms: _171  and  _172
REMARK   70  A    between atoms: _171  and  _174
REMARK   71  A    between atoms: _174  and  _175
REMARK   72  A    between atoms: _181  and  _183
REMARK   73  A    between atoms: _183  and  _184
REMARK   74  A    between atoms: _183  and  _186
REMARK   75  A    between atoms: _186  and  _187
REMARK   76  A    between atoms: _192  and  _193
REMARK   77  A    between atoms: _195  and  _197
REMARK   78  A    between atoms: _197  and  _198
REMARK   79  A    between atoms: _201  and  _203
REMARK   80  A    between atoms: _203  and  _204
REMARK   81  A    between atoms: _203  and  _206
REMARK   82  A    between atoms: _206  and  _207
REMARK   83  A    between atoms: _210  and  _212
REMARK   84  A    between atoms: _212  and  _213
REMARK   85  A    between atoms: _216  and  _218
REMARK   86  A    between atoms: _218  and  _219
REMARK   87  A    between atoms: _218  and  _221
REMARK   88  A    between atoms: _221  and  _222
REMARK   89  A    between atoms: _228  and  _230
REMARK   90  A    between atoms: _230  and  _231
REMARK   91  A    between atoms: _230  and  _233
REMARK   92  A    between atoms: _233  and  _234
REMARK   93  A    between atoms: _234  and  _235
REMARK   94  A    between atoms: _238  and  _240
REMARK   95  A    between atoms: _240  and  _241
REMARK   96  A    between atoms: _240  and  _243
REMARK   97  A    between atoms: _243  and  _244
REMARK   98  A    between atoms: _244  and  _245
REMARK   99  A    between atoms: _247  and  _249
REMARK  100  A    between atoms: _249  and  _250
REMARK  101  A    between atoms: _249  and  _252
REMARK  102  A    between atoms: _252  and  _253
REMARK  103  A    between atoms: _253  and  _254
REMARK  104  A    between atoms: _257  and  _259
REMARK  105  A    between atoms: _259  and  _260
REMARK  106  A    between atoms: _263  and  _265
REMARK  107  A    between atoms: _265  and  _266
REMARK  108  A    between atoms: _265  and  _268
REMARK  109  A    between atoms: _268  and  _269
REMARK  110  A    between atoms: _272  and  _274
REMARK  111  A    between atoms: _274  and  _275
REMARK  112  A    between atoms: _278  and  _280
REMARK  113  A    between atoms: _280  and  _281
REMARK  114  A    between atoms: _280  and  _283
REMARK  115  A    between atoms: _286  and  _288
REMARK  116  A    between atoms: _288  and  _289
REMARK  117  A    between atoms: _288  and  _291
REMARK  118  A    between atoms: _291  and  _292
REMARK  119  A    between atoms: _294  and  _296
REMARK  120  A    between atoms: _296  and  _297
REMARK  121  A    between atoms: _296  and  _299
REMARK  122  A    between atoms: _299  and  _300
REMARK  123  A    between atoms: _305  and  _307
REMARK  124  A    between atoms: _307  and  _308
REMARK  125  A    between atoms: _307  and  _310
REMARK  126  A    between atoms: _310  and  _311
REMARK  127  A    between atoms: _311  and  _312
REMARK  128  A    between atoms: _312  and  _313
REMARK  129  A    between atoms: _322  and  _324
REMARK  130  A    between atoms: _324  and  _325
REMARK  131  A    between atoms: _324  and  _327
REMARK  132  A    between atoms: _327  and  _328
REMARK  133  A    between atoms: _331  and  _333
REMARK  134  A    between atoms: _333  and  _334
REMARK  135  A    between atoms: _336  and  _338
REMARK  136  A    between atoms: _338  and  _339
REMARK  137  A    between atoms: _338  and  _341
REMARK  138  A    between atoms: _341  and  _342
REMARK  139  A    between atoms: _345  and  _347
REMARK  140  A    between atoms: _347  and  _348
REMARK  141  A    between atoms: _347  and  _350
REMARK  142  A    between atoms: _350  and  _351
REMARK  143  A    between atoms: _354  and  _356
REMARK  144  A    between atoms: _356  and  _357
REMARK  145  A    between atoms: _360  and  _362
REMARK  146  A    between atoms: _362  and  _363
REMARK  147  A    between atoms: _362  and  _365
REMARK  148  A    between atoms: _365  and  _366
REMARK  149  A    between atoms: _369  and  _371
REMARK  150  A    between atoms: _371  and  _372
REMARK  151  A    between atoms: _371  and  _374
REMARK  152  A    between atoms: _374  and  _375
REMARK  153  A    between atoms: _380  and  _382
REMARK  154  A    between atoms: _382  and  _383
REMARK  155  A    between atoms: _382  and  _385
REMARK  156  A    between atoms: _385  and  _386
REMARK  157  A    between atoms: _386  and  _387
REMARK  158  A    between atoms: _387  and  _388
REMARK  159  A    between atoms: _397  and  _399
REMARK  160  A    between atoms: _399  and  _400
REMARK  161  A    between atoms: _399  and  _402
REMARK  162  A    between atoms: _402  and  _403
REMARK  163  A    between atoms: _408  and  _410
REMARK  164  A    between atoms: _410  and  _411
REMARK  165  A    between atoms: _410  and  _413
REMARK  166  A    between atoms: _413  and  _414
REMARK  167  A    between atoms: _414  and  _415
REMARK  168  A    between atoms: _415  and  _416
REMARK  169  A    between atoms: _426  and  _427
REMARK  170  A    between atoms: _432  and  _434
REMARK  171  A    between atoms: _434  and  _435
REMARK  172  A    between atoms: _434  and  _437
REMARK  173  A    between atoms: _437  and  _438
REMARK  174  A    between atoms: _440  and  _442
REMARK  175  A    between atoms: _442  and  _443
REMARK  176  A    between atoms: _442  and  _445
REMARK  177  A    between atoms: _445  and  _446
REMARK  178  A    between atoms: _449  and  _451
REMARK  179  A    between atoms: _451  and  _452
REMARK  180  A    between atoms: _451  and  _454
REMARK  181  A    between atoms: _454  and  _455
REMARK  182  A    between atoms: _455  and  _456
REMARK  183  A    between atoms: _459  and  _461
REMARK  184  A    between atoms: _461  and  _462
REMARK  185  A    between atoms: _461  and  _464
REMARK  186  A    between atoms: _464  and  _465
REMARK  187  A    between atoms: _465  and  _466
REMARK                            x       y       z     vdW  Elec       q    Type
REMARK                         _______ _______ _______ _____ _____    ______ ____
ROOT
ATOM      1  O   HOH     1       3.519 -82.944-154.659  0.00  0.00    +0.000 OA
ENDROOT
TORSDOF 0
