REMARK  Name = ../refined-set-2016/3gr2/3gr2_pocket.pdb
REMARK  111 active torsions:
REMARK  status: ('A' for Active; 'I' for Inactive)
REMARK    1  A    between atoms: _1  and  _3
REMARK    2  A    between atoms: _3  and  _4
REMARK    3  A    between atoms: _3  and  _6
REMARK    4  A    between atoms: _6  and  _7
REMARK    5  A    between atoms: _7  and  _8
REMARK    6  A    between atoms: _11  and  _13
REMARK    7  A    between atoms: _13  and  _14
REMARK    8  A    between atoms: _16  and  _18
REMARK    9  A    between atoms: _18  and  _19
REMARK   10  A    between atoms: _18  and  _21
REMARK   11  A    between atoms: _21  and  _22
REMARK   12  A    between atoms: _24  and  _26
REMARK   13  A    between atoms: _26  and  _27
REMARK   14  A    between atoms: _26  and  _29
REMARK   15  A    between atoms: _29  and  _30
REMARK   16  A    between atoms: _30  and  _31
REMARK   17  A    between atoms: _31  and  _32
REMARK   18  A    between atoms: _32  and  _33
REMARK   19  A    between atoms: _37  and  _39
REMARK   20  A    between atoms: _39  and  _40
REMARK   21  A    between atoms: _39  and  _42
REMARK   22  A    between atoms: _42  and  _43
REMARK   23  A    between atoms: _46  and  _48
REMARK   24  A    between atoms: _48  and  _49
REMARK   25  A    between atoms: _48  and  _51
REMARK   26  A    between atoms: _51  and  _52
REMARK   27  A    between atoms: _52  and  _53
REMARK   28  A    between atoms: _58  and  _60
REMARK   29  A    between atoms: _60  and  _61
REMARK   30  A    between atoms: _60  and  _63
REMARK   31  A    between atoms: _66  and  _68
REMARK   32  A    between atoms: _68  and  _69
REMARK   33  A    between atoms: _68  and  _71
REMARK   34  A    between atoms: _71  and  _72
REMARK   35  A    between atoms: _75  and  _77
REMARK   36  A    between atoms: _77  and  _78
REMARK   37  A    between atoms: _77  and  _80
REMARK   38  A    between atoms: _80  and  _81
REMARK   39  A    between atoms: _86  and  _87
REMARK   40  A    between atoms: _89  and  _91
REMARK   41  A    between atoms: _91  and  _92
REMARK   42  A    between atoms: _95  and  _97
REMARK   43  A    between atoms: _97  and  _98
REMARK   44  A    between atoms: _97  and  _100
REMARK   45  A    between atoms: _100  and  _101
REMARK   46  A    between atoms: _106  and  _108
REMARK   47  A    between atoms: _108  and  _109
REMARK   48  A    between atoms: _111  and  _113
REMARK   49  A    between atoms: _113  and  _114
REMARK   50  A    between atoms: _113  and  _116
REMARK   51  A    between atoms: _116  and  _117
REMARK   52  A    between atoms: _117  and  _118
REMARK   53  A    between atoms: _118  and  _119
REMARK   54  A    between atoms: _128  and  _130
REMARK   55  A    between atoms: _130  and  _131
REMARK   56  A    between atoms: _130  and  _133
REMARK   57  A    between atoms: _136  and  _138
REMARK   58  A    between atoms: _138  and  _139
REMARK   59  A    between atoms: _138  and  _141
REMARK   60  A    between atoms: _141  and  _142
REMARK   61  A    between atoms: _147  and  _149
REMARK   62  A    between atoms: _149  and  _150
REMARK   63  A    between atoms: _149  and  _152
REMARK   64  A    between atoms: _155  and  _157
REMARK   65  A    between atoms: _157  and  _158
REMARK   66  A    between atoms: _157  and  _160
REMARK   67  A    between atoms: _160  and  _161
REMARK   68  A    between atoms: _164  and  _165
REMARK   69  A    between atoms: _170  and  _172
REMARK   70  A    between atoms: _172  and  _173
REMARK   71  A    between atoms: _175  and  _177
REMARK   72  A    between atoms: _177  and  _178
REMARK   73  A    between atoms: _181  and  _183
REMARK   74  A    between atoms: _183  and  _184
REMARK   75  A    between atoms: _183  and  _186
REMARK   76  A    between atoms: _186  and  _187
REMARK   77  A    between atoms: _190  and  _192
REMARK   78  A    between atoms: _192  and  _193
REMARK   79  A    between atoms: _196  and  _198
REMARK   80  A    between atoms: _198  and  _199
REMARK   81  A    between atoms: _198  and  _201
REMARK   82  A    between atoms: _201  and  _202
REMARK   83  A    between atoms: _207  and  _208
REMARK   84  A    between atoms: _210  and  _212
REMARK   85  A    between atoms: _212  and  _213
REMARK   86  A    between atoms: _215  and  _217
REMARK   87  A    between atoms: _217  and  _218
REMARK   88  A    between atoms: _220  and  _222
REMARK   89  A    between atoms: _222  and  _223
REMARK   90  A    between atoms: _226  and  _228
REMARK   91  A    between atoms: _228  and  _229
REMARK   92  A    between atoms: _228  and  _231
REMARK   93  A    between atoms: _231  and  _232
REMARK   94  A    between atoms: _235  and  _237
REMARK   95  A    between atoms: _237  and  _238
REMARK   96  A    between atoms: _240  and  _242
REMARK   97  A    between atoms: _242  and  _243
REMARK   98  A    between atoms: _245  and  _247
REMARK   99  A    between atoms: _247  and  _248
REMARK  100  A    between atoms: _247  and  _250
REMARK  101  A    between atoms: _250  and  _251
REMARK  102  A    between atoms: _257  and  _259
REMARK  103  A    between atoms: _259  and  _260
REMARK  104  A    between atoms: _259  and  _262
REMARK  105  A    between atoms: _262  and  _263
REMARK  106  A    between atoms: _268  and  _270
REMARK  107  A    between atoms: _270  and  _271
REMARK  108  A    between atoms: _270  and  _273
REMARK  109  A    between atoms: _273  and  _274
REMARK  110  A    between atoms: _274  and  _275
REMARK  111  A    between atoms: _275  and  _276
REMARK                            x       y       z     vdW  Elec       q    Type
REMARK                         _______ _______ _______ _____ _____    ______ ____
ROOT
ATOM      1  CA  GLU A   1     -37.167  -4.414  14.061  0.00  0.00    +0.134 C 
ENDROOT
BRANCH   1   2
ATOM      2  N   GLU A   1     -38.042  -5.481  14.541  0.00  0.00    -0.239 NA
ATOM      3  H   GLU A   1     -39.069  -5.321  14.573  0.00  0.00    +0.142 HD
ENDBRANCH   1   2
BRANCH   1   4
ATOM      4  C   GLU A   1     -36.441  -3.804  15.254  0.00  0.00    +0.224 C 
ATOM      5  O   GLU A   1     -37.076  -3.325  16.198  0.00  0.00    -0.287 OA
ENDBRANCH   1   4
BRANCH   1   6
ATOM      6  CB  GLU A   1     -37.968  -3.344  13.317  0.00  0.00    +0.037 C 
BRANCH   6   7
ATOM      7  CG  GLU A   1     -38.580  -3.846  12.019  0.00  0.00    +0.116 C 
BRANCH   7   8
ATOM      8  CD  GLU A   1     -39.543  -2.863  11.377  0.00  0.00    +0.365 C 
ATOM      9  OE2 GLU A   1     -39.687  -1.723  11.870  0.00  0.00    -0.246 OA
ATOM     10  OE1 GLU A   1     -40.166  -3.243  10.365  0.00  0.00    -0.246 OA
ENDBRANCH   7   8
ENDBRANCH   6   7
ENDBRANCH   1   6
TORSDOF 5
REMARK  Name = ../refined-set-2016/3gr2/3gr2_pocket.pdb
REMARK  111 active torsions:
REMARK  status: ('A' for Active; 'I' for Inactive)
REMARK    1  A    between atoms: _1  and  _3
REMARK    2  A    between atoms: _3  and  _4
REMARK    3  A    between atoms: _3  and  _6
REMARK    4  A    between atoms: _6  and  _7
REMARK    5  A    between atoms: _7  and  _8
REMARK    6  A    between atoms: _11  and  _13
REMARK    7  A    between atoms: _13  and  _14
REMARK    8  A    between atoms: _16  and  _18
REMARK    9  A    between atoms: _18  and  _19
REMARK   10  A    between atoms: _18  and  _21
REMARK   11  A    between atoms: _21  and  _22
REMARK   12  A    between atoms: _24  and  _26
REMARK   13  A    between atoms: _26  and  _27
REMARK   14  A    between atoms: _26  and  _29
REMARK   15  A    between atoms: _29  and  _30
REMARK   16  A    between atoms: _30  and  _31
REMARK   17  A    between atoms: _31  and  _32
REMARK   18  A    between atoms: _32  and  _33
REMARK   19  A    between atoms: _37  and  _39
REMARK   20  A    between atoms: _39  and  _40
REMARK   21  A    between atoms: _39  and  _42
REMARK   22  A    between atoms: _42  and  _43
REMARK   23  A    between atoms: _46  and  _48
REMARK   24  A    between atoms: _48  and  _49
REMARK   25  A    between atoms: _48  and  _51
REMARK   26  A    between atoms: _51  and  _52
REMARK   27  A    between atoms: _52  and  _53
REMARK   28  A    between atoms: _58  and  _60
REMARK   29  A    between atoms: _60  and  _61
REMARK   30  A    between atoms: _60  and  _63
REMARK   31  A    between atoms: _66  and  _68
REMARK   32  A    between atoms: _68  and  _69
REMARK   33  A    between atoms: _68  and  _71
REMARK   34  A    between atoms: _71  and  _72
REMARK   35  A    between atoms: _75  and  _77
REMARK   36  A    between atoms: _77  and  _78
REMARK   37  A    between atoms: _77  and  _80
REMARK   38  A    between atoms: _80  and  _81
REMARK   39  A    between atoms: _86  and  _87
REMARK   40  A    between atoms: _89  and  _91
REMARK   41  A    between atoms: _91  and  _92
REMARK   42  A    between atoms: _95  and  _97
REMARK   43  A    between atoms: _97  and  _98
REMARK   44  A    between atoms: _97  and  _100
REMARK   45  A    between atoms: _100  and  _101
REMARK   46  A    between atoms: _106  and  _108
REMARK   47  A    between atoms: _108  and  _109
REMARK   48  A    between atoms: _111  and  _113
REMARK   49  A    between atoms: _113  and  _114
REMARK   50  A    between atoms: _113  and  _116
REMARK   51  A    between atoms: _116  and  _117
REMARK   52  A    between atoms: _117  and  _118
REMARK   53  A    between atoms: _118  and  _119
REMARK   54  A    between atoms: _128  and  _130
REMARK   55  A    between atoms: _130  and  _131
REMARK   56  A    between atoms: _130  and  _133
REMARK   57  A    between atoms: _136  and  _138
REMARK   58  A    between atoms: _138  and  _139
REMARK   59  A    between atoms: _138  and  _141
REMARK   60  A    between atoms: _141  and  _142
REMARK   61  A    between atoms: _147  and  _149
REMARK   62  A    between atoms: _149  and  _150
REMARK   63  A    between atoms: _149  and  _152
REMARK   64  A    between atoms: _155  and  _157
REMARK   65  A    between atoms: _157  and  _158
REMARK   66  A    between atoms: _157  and  _160
REMARK   67  A    between atoms: _160  and  _161
REMARK   68  A    between atoms: _164  and  _165
REMARK   69  A    between atoms: _170  and  _172
REMARK   70  A    between atoms: _172  and  _173
REMARK   71  A    between atoms: _175  and  _177
REMARK   72  A    between atoms: _177  and  _178
REMARK   73  A    between atoms: _181  and  _183
REMARK   74  A    between atoms: _183  and  _184
REMARK   75  A    between atoms: _183  and  _186
REMARK   76  A    between atoms: _186  and  _187
REMARK   77  A    between atoms: _190  and  _192
REMARK   78  A    between atoms: _192  and  _193
REMARK   79  A    between atoms: _196  and  _198
REMARK   80  A    between atoms: _198  and  _199
REMARK   81  A    between atoms: _198  and  _201
REMARK   82  A    between atoms: _201  and  _202
REMARK   83  A    between atoms: _207  and  _208
REMARK   84  A    between atoms: _210  and  _212
REMARK   85  A    between atoms: _212  and  _213
REMARK   86  A    between atoms: _215  and  _217
REMARK   87  A    between atoms: _217  and  _218
REMARK   88  A    between atoms: _220  and  _222
REMARK   89  A    between atoms: _222  and  _223
REMARK   90  A    between atoms: _226  and  _228
REMARK   91  A    between atoms: _228  and  _229
REMARK   92  A    between atoms: _228  and  _231
REMARK   93  A    between atoms: _231  and  _232
REMARK   94  A    between atoms: _235  and  _237
REMARK   95  A    between atoms: _237  and  _238
REMARK   96  A    between atoms: _240  and  _242
REMARK   97  A    between atoms: _242  and  _243
REMARK   98  A    between atoms: _245  and  _247
REMARK   99  A    between atoms: _247  and  _248
REMARK  100  A    between atoms: _247  and  _250
REMARK  101  A    between atoms: _250  and  _251
REMARK  102  A    between atoms: _257  and  _259
REMARK  103  A    between atoms: _259  and  _260
REMARK  104  A    between atoms: _259  and  _262
REMARK  105  A    between atoms: _262  and  _263
REMARK  106  A    between atoms: _268  and  _270
REMARK  107  A    between atoms: _270  and  _271
REMARK  108  A    between atoms: _270  and  _273
REMARK  109  A    between atoms: _273  and  _274
REMARK  110  A    between atoms: _274  and  _275
REMARK  111  A    between atoms: _275  and  _276
REMARK                            x       y       z     vdW  Elec       q    Type
REMARK                         _______ _______ _______ _____ _____    ______ ____
ROOT
ATOM      1  C   GLY A   1     -32.820   0.577  15.315  0.00  0.00    +0.240 C 
ATOM      2  N   SER A   2     -32.623   1.577  16.170  0.00  0.00    -0.296 N 
ATOM      3  H   SER A   2     -33.447   2.014  16.630  0.00  0.00    +0.150 HD
ATOM      4  O   GLY A   1     -31.903  -0.101  14.854  0.00  0.00    -0.274 OA
ENDROOT
BRANCH   1   5
ATOM      5  CA  GLY A   1     -34.260   0.246  14.972  0.00  0.00    +0.169 C 
BRANCH   5   6
ATOM      6  N   GLY A   1     -34.465  -1.190  15.130  0.00  0.00    -0.236 NA
ATOM      7  H   GLY A   1     -34.838  -1.746  14.334  0.00  0.00    +0.142 HD
ENDBRANCH   5   6
ENDBRANCH   1   5
BRANCH   2   8
ATOM      8  CA  SER A   2     -31.281   2.085  16.486  0.00  0.00    +0.166 C 
BRANCH   8   9
ATOM      9  C   SER A   2     -30.367   1.153  17.293  0.00  0.00    +0.229 C 
ATOM     10  O   SER A   2     -29.171   1.427  17.424  0.00  0.00    -0.286 OA
ENDBRANCH   8   9
BRANCH   8  11
ATOM     11  CB  SER A   2     -31.388   3.436  17.183  0.00  0.00    +0.165 C 
BRANCH  11  12
ATOM     12  OG  SER A   2     -31.921   4.406  16.299  0.00  0.00    -0.380 OA
ATOM     13  H   SER A   2     -31.984   5.277  16.766  0.00  0.00    +0.211 HD
ENDBRANCH  11  12
ENDBRANCH   8  11
ENDBRANCH   2   8
TORSDOF 6
REMARK  Name = ../refined-set-2016/3gr2/3gr2_pocket.pdb
REMARK  111 active torsions:
REMARK  status: ('A' for Active; 'I' for Inactive)
REMARK    1  A    between atoms: _1  and  _3
REMARK    2  A    between atoms: _3  and  _4
REMARK    3  A    between atoms: _3  and  _6
REMARK    4  A    between atoms: _6  and  _7
REMARK    5  A    between atoms: _7  and  _8
REMARK    6  A    between atoms: _11  and  _13
REMARK    7  A    between atoms: _13  and  _14
REMARK    8  A    between atoms: _16  and  _18
REMARK    9  A    between atoms: _18  and  _19
REMARK   10  A    between atoms: _18  and  _21
REMARK   11  A    between atoms: _21  and  _22
REMARK   12  A    between atoms: _24  and  _26
REMARK   13  A    between atoms: _26  and  _27
REMARK   14  A    between atoms: _26  and  _29
REMARK   15  A    between atoms: _29  and  _30
REMARK   16  A    between atoms: _30  and  _31
REMARK   17  A    between atoms: _31  and  _32
REMARK   18  A    between atoms: _32  and  _33
REMARK   19  A    between atoms: _37  and  _39
REMARK   20  A    between atoms: _39  and  _40
REMARK   21  A    between atoms: _39  and  _42
REMARK   22  A    between atoms: _42  and  _43
REMARK   23  A    between atoms: _46  and  _48
REMARK   24  A    between atoms: _48  and  _49
REMARK   25  A    between atoms: _48  and  _51
REMARK   26  A    between atoms: _51  and  _52
REMARK   27  A    between atoms: _52  and  _53
REMARK   28  A    between atoms: _58  and  _60
REMARK   29  A    between atoms: _60  and  _61
REMARK   30  A    between atoms: _60  and  _63
REMARK   31  A    between atoms: _66  and  _68
REMARK   32  A    between atoms: _68  and  _69
REMARK   33  A    between atoms: _68  and  _71
REMARK   34  A    between atoms: _71  and  _72
REMARK   35  A    between atoms: _75  and  _77
REMARK   36  A    between atoms: _77  and  _78
REMARK   37  A    between atoms: _77  and  _80
REMARK   38  A    between atoms: _80  and  _81
REMARK   39  A    between atoms: _86  and  _87
REMARK   40  A    between atoms: _89  and  _91
REMARK   41  A    between atoms: _91  and  _92
REMARK   42  A    between atoms: _95  and  _97
REMARK   43  A    between atoms: _97  and  _98
REMARK   44  A    between atoms: _97  and  _100
REMARK   45  A    between atoms: _100  and  _101
REMARK   46  A    between atoms: _106  and  _108
REMARK   47  A    between atoms: _108  and  _109
REMARK   48  A    between atoms: _111  and  _113
REMARK   49  A    between atoms: _113  and  _114
REMARK   50  A    between atoms: _113  and  _116
REMARK   51  A    between atoms: _116  and  _117
REMARK   52  A    between atoms: _117  and  _118
REMARK   53  A    between atoms: _118  and  _119
REMARK   54  A    between atoms: _128  and  _130
REMARK   55  A    between atoms: _130  and  _131
REMARK   56  A    between atoms: _130  and  _133
REMARK   57  A    between atoms: _136  and  _138
REMARK   58  A    between atoms: _138  and  _139
REMARK   59  A    between atoms: _138  and  _141
REMARK   60  A    between atoms: _141  and  _142
REMARK   61  A    between atoms: _147  and  _149
REMARK   62  A    between atoms: _149  and  _150
REMARK   63  A    between atoms: _149  and  _152
REMARK   64  A    between atoms: _155  and  _157
REMARK   65  A    between atoms: _157  and  _158
REMARK   66  A    between atoms: _157  and  _160
REMARK   67  A    between atoms: _160  and  _161
REMARK   68  A    between atoms: _164  and  _165
REMARK   69  A    between atoms: _170  and  _172
REMARK   70  A    between atoms: _172  and  _173
REMARK   71  A    between atoms: _175  and  _177
REMARK   72  A    between atoms: _177  and  _178
REMARK   73  A    between atoms: _181  and  _183
REMARK   74  A    between atoms: _183  and  _184
REMARK   75  A    between atoms: _183  and  _186
REMARK   76  A    between atoms: _186  and  _187
REMARK   77  A    between atoms: _190  and  _192
REMARK   78  A    between atoms: _192  and  _193
REMARK   79  A    between atoms: _196  and  _198
REMARK   80  A    between atoms: _198  and  _199
REMARK   81  A    between atoms: _198  and  _201
REMARK   82  A    between atoms: _201  and  _202
REMARK   83  A    between atoms: _207  and  _208
REMARK   84  A    between atoms: _210  and  _212
REMARK   85  A    between atoms: _212  and  _213
REMARK   86  A    between atoms: _215  and  _217
REMARK   87  A    between atoms: _217  and  _218
REMARK   88  A    between atoms: _220  and  _222
REMARK   89  A    between atoms: _222  and  _223
REMARK   90  A    between atoms: _226  and  _228
REMARK   91  A    between atoms: _228  and  _229
REMARK   92  A    between atoms: _228  and  _231
REMARK   93  A    between atoms: _231  and  _232
REMARK   94  A    between atoms: _235  and  _237
REMARK   95  A    between atoms: _237  and  _238
REMARK   96  A    between atoms: _240  and  _242
REMARK   97  A    between atoms: _242  and  _243
REMARK   98  A    between atoms: _245  and  _247
REMARK   99  A    between atoms: _247  and  _248
REMARK  100  A    between atoms: _247  and  _250
REMARK  101  A    between atoms: _250  and  _251
REMARK  102  A    between atoms: _257  and  _259
REMARK  103  A    between atoms: _259  and  _260
REMARK  104  A    between atoms: _259  and  _262
REMARK  105  A    between atoms: _262  and  _263
REMARK  106  A    between atoms: _268  and  _270
REMARK  107  A    between atoms: _270  and  _271
REMARK  108  A    between atoms: _270  and  _273
REMARK  109  A    between atoms: _273  and  _274
REMARK  110  A    between atoms: _274  and  _275
REMARK  111  A    between atoms: _275  and  _276
REMARK                            x       y       z     vdW  Elec       q    Type
REMARK                         _______ _______ _______ _____ _____    ______ ____
ROOT
ATOM      1  CG  LYS A   1     -26.994   3.242  15.389  0.00  0.00    -0.000 C 
ENDROOT
BRANCH   1   2
ATOM      2  CB  LYS A   1     -26.279   2.279  16.318  0.00  0.00    +0.025 C 
BRANCH   2   3
ATOM      3  CA  LYS A   1     -26.025   0.898  15.703  0.00  0.00    +0.133 C 
BRANCH   3   4
ATOM      4  N   LYS A   1     -27.270   0.127  15.587  0.00  0.00    -0.239 NA
ATOM      5  H   LYS A   1     -28.150   0.532  15.966  0.00  0.00    +0.142 HD
ENDBRANCH   3   4
BRANCH   3   6
ATOM      6  C   LYS A   1     -24.942   0.158  16.488  0.00  0.00    +0.224 C 
ATOM      7  O   LYS A   1     -23.749   0.385  16.267  0.00  0.00    -0.287 OA
ENDBRANCH   3   6
ENDBRANCH   2   3
ENDBRANCH   1   2
BRANCH   1   8
ATOM      8  CD  LYS A   1     -27.361   4.536  16.097  0.00  0.00    -0.024 C 
BRANCH   8   9
ATOM      9  CE  LYS A   1     -28.066   5.499  15.154  0.00  0.00    -0.086 C 
BRANCH   9  10
ATOM     10  NZ  LYS A   1     -29.423   5.011  14.772  0.00  0.00    +0.380 N 
ATOM     11  HZ1 LYS A   1     -30.006   4.906  15.627  0.00  0.00    -0.089 HD
ATOM     12  HZ2 LYS A   1     -29.338   4.091  14.295  0.00  0.00    -0.089 HD
ATOM     13  HZ3 LYS A   1     -29.868   5.697  14.129  0.00  0.00    -0.089 HD
ENDBRANCH   9  10
ENDBRANCH   8   9
ENDBRANCH   1   8
TORSDOF 7
REMARK  Name = ../refined-set-2016/3gr2/3gr2_pocket.pdb
REMARK  111 active torsions:
REMARK  status: ('A' for Active; 'I' for Inactive)
REMARK    1  A    between atoms: _1  and  _3
REMARK    2  A    between atoms: _3  and  _4
REMARK    3  A    between atoms: _3  and  _6
REMARK    4  A    between atoms: _6  and  _7
REMARK    5  A    between atoms: _7  and  _8
REMARK    6  A    between atoms: _11  and  _13
REMARK    7  A    between atoms: _13  and  _14
REMARK    8  A    between atoms: _16  and  _18
REMARK    9  A    between atoms: _18  and  _19
REMARK   10  A    between atoms: _18  and  _21
REMARK   11  A    between atoms: _21  and  _22
REMARK   12  A    between atoms: _24  and  _26
REMARK   13  A    between atoms: _26  and  _27
REMARK   14  A    between atoms: _26  and  _29
REMARK   15  A    between atoms: _29  and  _30
REMARK   16  A    between atoms: _30  and  _31
REMARK   17  A    between atoms: _31  and  _32
REMARK   18  A    between atoms: _32  and  _33
REMARK   19  A    between atoms: _37  and  _39
REMARK   20  A    between atoms: _39  and  _40
REMARK   21  A    between atoms: _39  and  _42
REMARK   22  A    between atoms: _42  and  _43
REMARK   23  A    between atoms: _46  and  _48
REMARK   24  A    between atoms: _48  and  _49
REMARK   25  A    between atoms: _48  and  _51
REMARK   26  A    between atoms: _51  and  _52
REMARK   27  A    between atoms: _52  and  _53
REMARK   28  A    between atoms: _58  and  _60
REMARK   29  A    between atoms: _60  and  _61
REMARK   30  A    between atoms: _60  and  _63
REMARK   31  A    between atoms: _66  and  _68
REMARK   32  A    between atoms: _68  and  _69
REMARK   33  A    between atoms: _68  and  _71
REMARK   34  A    between atoms: _71  and  _72
REMARK   35  A    between atoms: _75  and  _77
REMARK   36  A    between atoms: _77  and  _78
REMARK   37  A    between atoms: _77  and  _80
REMARK   38  A    between atoms: _80  and  _81
REMARK   39  A    between atoms: _86  and  _87
REMARK   40  A    between atoms: _89  and  _91
REMARK   41  A    between atoms: _91  and  _92
REMARK   42  A    between atoms: _95  and  _97
REMARK   43  A    between atoms: _97  and  _98
REMARK   44  A    between atoms: _97  and  _100
REMARK   45  A    between atoms: _100  and  _101
REMARK   46  A    between atoms: _106  and  _108
REMARK   47  A    between atoms: _108  and  _109
REMARK   48  A    between atoms: _111  and  _113
REMARK   49  A    between atoms: _113  and  _114
REMARK   50  A    between atoms: _113  and  _116
REMARK   51  A    between atoms: _116  and  _117
REMARK   52  A    between atoms: _117  and  _118
REMARK   53  A    between atoms: _118  and  _119
REMARK   54  A    between atoms: _128  and  _130
REMARK   55  A    between atoms: _130  and  _131
REMARK   56  A    between atoms: _130  and  _133
REMARK   57  A    between atoms: _136  and  _138
REMARK   58  A    between atoms: _138  and  _139
REMARK   59  A    between atoms: _138  and  _141
REMARK   60  A    between atoms: _141  and  _142
REMARK   61  A    between atoms: _147  and  _149
REMARK   62  A    between atoms: _149  and  _150
REMARK   63  A    between atoms: _149  and  _152
REMARK   64  A    between atoms: _155  and  _157
REMARK   65  A    between atoms: _157  and  _158
REMARK   66  A    between atoms: _157  and  _160
REMARK   67  A    between atoms: _160  and  _161
REMARK   68  A    between atoms: _164  and  _165
REMARK   69  A    between atoms: _170  and  _172
REMARK   70  A    between atoms: _172  and  _173
REMARK   71  A    between atoms: _175  and  _177
REMARK   72  A    between atoms: _177  and  _178
REMARK   73  A    between atoms: _181  and  _183
REMARK   74  A    between atoms: _183  and  _184
REMARK   75  A    between atoms: _183  and  _186
REMARK   76  A    between atoms: _186  and  _187
REMARK   77  A    between atoms: _190  and  _192
REMARK   78  A    between atoms: _192  and  _193
REMARK   79  A    between atoms: _196  and  _198
REMARK   80  A    between atoms: _198  and  _199
REMARK   81  A    between atoms: _198  and  _201
REMARK   82  A    between atoms: _201  and  _202
REMARK   83  A    between atoms: _207  and  _208
REMARK   84  A    between atoms: _210  and  _212
REMARK   85  A    between atoms: _212  and  _213
REMARK   86  A    between atoms: _215  and  _217
REMARK   87  A    between atoms: _217  and  _218
REMARK   88  A    between atoms: _220  and  _222
REMARK   89  A    between atoms: _222  and  _223
REMARK   90  A    between atoms: _226  and  _228
REMARK   91  A    between atoms: _228  and  _229
REMARK   92  A    between atoms: _228  and  _231
REMARK   93  A    between atoms: _231  and  _232
REMARK   94  A    between atoms: _235  and  _237
REMARK   95  A    between atoms: _237  and  _238
REMARK   96  A    between atoms: _240  and  _242
REMARK   97  A    between atoms: _242  and  _243
REMARK   98  A    between atoms: _245  and  _247
REMARK   99  A    between atoms: _247  and  _248
REMARK  100  A    between atoms: _247  and  _250
REMARK  101  A    between atoms: _250  and  _251
REMARK  102  A    between atoms: _257  and  _259
REMARK  103  A    between atoms: _259  and  _260
REMARK  104  A    between atoms: _259  and  _262
REMARK  105  A    between atoms: _262  and  _263
REMARK  106  A    between atoms: _268  and  _270
REMARK  107  A    between atoms: _270  and  _271
REMARK  108  A    between atoms: _270  and  _273
REMARK  109  A    between atoms: _273  and  _274
REMARK  110  A    between atoms: _274  and  _275
REMARK  111  A    between atoms: _275  and  _276
REMARK                            x       y       z     vdW  Elec       q    Type
REMARK                         _______ _______ _______ _____ _____    ______ ____
ROOT
ATOM      1  CA  GLN A   2     -32.161  11.850   9.582  0.00  0.00    +0.149 C 
ENDROOT
BRANCH   1   4
ATOM      2  C   LEU A   1     -31.049  12.185  11.746  0.00  0.00    +0.238 C 
ATOM      3  O   LEU A   1     -30.723  11.002  11.852  0.00  0.00    -0.274 OA
ATOM      4  N   GLN A   2     -31.711  12.676  10.699  0.00  0.00    -0.297 N 
ATOM      5  H   GLN A   2     -31.917  13.695  10.676  0.00  0.00    +0.150 HD
BRANCH   2   6
ATOM      6  CA  LEU A   1     -30.697  13.187  12.842  0.00  0.00    +0.145 C 
BRANCH   6   7
ATOM      7  N   LEU A   1     -30.143  14.434  12.298  0.00  0.00    -0.238 NA
ATOM      8  H   LEU A   1     -30.579  15.336  12.577  0.00  0.00    +0.142 HD
ENDBRANCH   6   7
BRANCH   6   9
ATOM      9  CB  LEU A   1     -31.929  13.455  13.725  0.00  0.00    +0.026 C 
BRANCH   9  10
ATOM     10  CG  LEU A   1     -32.682  12.234  14.289  0.00  0.00    +0.002 C 
ATOM     11  CD2 LEU A   1     -31.794  11.397  15.213  0.00  0.00    +0.000 C 
ATOM     12  CD1 LEU A   1     -33.953  12.660  15.020  0.00  0.00    +0.000 C 
ENDBRANCH   9  10
ENDBRANCH   6   9
ENDBRANCH   2   6
ENDBRANCH   1   4
BRANCH   1  13
ATOM     13  C   GLN A   2     -31.560  12.313   8.256  0.00  0.00    +0.241 C 
ATOM     14  O   GLN A   2     -31.389  13.514   8.025  0.00  0.00    -0.273 OA
ATOM     15  N   VAL A   3     -31.238  11.355   7.391  0.00  0.00    -0.298 N 
ATOM     16  H   VAL A   3     -31.161  10.373   7.724  0.00  0.00    +0.150 HD
BRANCH  15  17
ATOM     17  CA  VAL A   3     -30.991  11.654   5.987  0.00  0.00    +0.137 C 
BRANCH  17  18
ATOM     18  CB  VAL A   3     -30.361  10.445   5.242  0.00  0.00    +0.026 C 
ATOM     19  CG2 VAL A   3     -29.100   9.964   5.953  0.00  0.00    +0.002 C 
ATOM     20  CG1 VAL A   3     -30.043  10.800   3.796  0.00  0.00    +0.002 C 
ENDBRANCH  17  18
BRANCH  17  21
ATOM     21  C   VAL A   3     -32.370  11.968   5.404  0.00  0.00    +0.227 C 
ATOM     22  O   VAL A   3     -33.326  11.228   5.663  0.00  0.00    -0.286 OA
ENDBRANCH  17  21
ENDBRANCH  15  17
ENDBRANCH   1  13
BRANCH   1  23
ATOM     23  CB  GLN A   2     -33.695  11.884   9.458  0.00  0.00    +0.039 C 
BRANCH  23  24
ATOM     24  CG  GLN A   2     -34.484  11.519  10.722  0.00  0.00    +0.087 C 
BRANCH  24  25
ATOM     25  CD  GLN A   2     -35.345  12.663  11.259  0.00  0.00    +0.219 C 
ATOM     26  NE2 GLN A   2     -36.533  12.322  11.749  0.00  0.00    -0.329 N 
ATOM     27 HE21 GLN A   2     -37.165  13.052  12.135  0.00  0.00    +0.145 HD
ATOM     28 HE22 GLN A   2     -36.830  11.325  11.746  0.00  0.00    +0.145 HD
ATOM     29  OE1 GLN A   2     -34.947  13.829  11.240  0.00  0.00    -0.275 OA
ENDBRANCH  24  25
ENDBRANCH  23  24
ENDBRANCH   1  23
TORSDOF 12
REMARK  Name = ../refined-set-2016/3gr2/3gr2_pocket.pdb
REMARK  111 active torsions:
REMARK  status: ('A' for Active; 'I' for Inactive)
REMARK    1  A    between atoms: _1  and  _3
REMARK    2  A    between atoms: _3  and  _4
REMARK    3  A    between atoms: _3  and  _6
REMARK    4  A    between atoms: _6  and  _7
REMARK    5  A    between atoms: _7  and  _8
REMARK    6  A    between atoms: _11  and  _13
REMARK    7  A    between atoms: _13  and  _14
REMARK    8  A    between atoms: _16  and  _18
REMARK    9  A    between atoms: _18  and  _19
REMARK   10  A    between atoms: _18  and  _21
REMARK   11  A    between atoms: _21  and  _22
REMARK   12  A    between atoms: _24  and  _26
REMARK   13  A    between atoms: _26  and  _27
REMARK   14  A    between atoms: _26  and  _29
REMARK   15  A    between atoms: _29  and  _30
REMARK   16  A    between atoms: _30  and  _31
REMARK   17  A    between atoms: _31  and  _32
REMARK   18  A    between atoms: _32  and  _33
REMARK   19  A    between atoms: _37  and  _39
REMARK   20  A    between atoms: _39  and  _40
REMARK   21  A    between atoms: _39  and  _42
REMARK   22  A    between atoms: _42  and  _43
REMARK   23  A    between atoms: _46  and  _48
REMARK   24  A    between atoms: _48  and  _49
REMARK   25  A    between atoms: _48  and  _51
REMARK   26  A    between atoms: _51  and  _52
REMARK   27  A    between atoms: _52  and  _53
REMARK   28  A    between atoms: _58  and  _60
REMARK   29  A    between atoms: _60  and  _61
REMARK   30  A    between atoms: _60  and  _63
REMARK   31  A    between atoms: _66  and  _68
REMARK   32  A    between atoms: _68  and  _69
REMARK   33  A    between atoms: _68  and  _71
REMARK   34  A    between atoms: _71  and  _72
REMARK   35  A    between atoms: _75  and  _77
REMARK   36  A    between atoms: _77  and  _78
REMARK   37  A    between atoms: _77  and  _80
REMARK   38  A    between atoms: _80  and  _81
REMARK   39  A    between atoms: _86  and  _87
REMARK   40  A    between atoms: _89  and  _91
REMARK   41  A    between atoms: _91  and  _92
REMARK   42  A    between atoms: _95  and  _97
REMARK   43  A    between atoms: _97  and  _98
REMARK   44  A    between atoms: _97  and  _100
REMARK   45  A    between atoms: _100  and  _101
REMARK   46  A    between atoms: _106  and  _108
REMARK   47  A    between atoms: _108  and  _109
REMARK   48  A    between atoms: _111  and  _113
REMARK   49  A    between atoms: _113  and  _114
REMARK   50  A    between atoms: _113  and  _116
REMARK   51  A    between atoms: _116  and  _117
REMARK   52  A    between atoms: _117  and  _118
REMARK   53  A    between atoms: _118  and  _119
REMARK   54  A    between atoms: _128  and  _130
REMARK   55  A    between atoms: _130  and  _131
REMARK   56  A    between atoms: _130  and  _133
REMARK   57  A    between atoms: _136  and  _138
REMARK   58  A    between atoms: _138  and  _139
REMARK   59  A    between atoms: _138  and  _141
REMARK   60  A    between atoms: _141  and  _142
REMARK   61  A    between atoms: _147  and  _149
REMARK   62  A    between atoms: _149  and  _150
REMARK   63  A    between atoms: _149  and  _152
REMARK   64  A    between atoms: _155  and  _157
REMARK   65  A    between atoms: _157  and  _158
REMARK   66  A    between atoms: _157  and  _160
REMARK   67  A    between atoms: _160  and  _161
REMARK   68  A    between atoms: _164  and  _165
REMARK   69  A    between atoms: _170  and  _172
REMARK   70  A    between atoms: _172  and  _173
REMARK   71  A    between atoms: _175  and  _177
REMARK   72  A    between atoms: _177  and  _178
REMARK   73  A    between atoms: _181  and  _183
REMARK   74  A    between atoms: _183  and  _184
REMARK   75  A    between atoms: _183  and  _186
REMARK   76  A    between atoms: _186  and  _187
REMARK   77  A    between atoms: _190  and  _192
REMARK   78  A    between atoms: _192  and  _193
REMARK   79  A    between atoms: _196  and  _198
REMARK   80  A    between atoms: _198  and  _199
REMARK   81  A    between atoms: _198  and  _201
REMARK   82  A    between atoms: _201  and  _202
REMARK   83  A    between atoms: _207  and  _208
REMARK   84  A    between atoms: _210  and  _212
REMARK   85  A    between atoms: _212  and  _213
REMARK   86  A    between atoms: _215  and  _217
REMARK   87  A    between atoms: _217  and  _218
REMARK   88  A    between atoms: _220  and  _222
REMARK   89  A    between atoms: _222  and  _223
REMARK   90  A    between atoms: _226  and  _228
REMARK   91  A    between atoms: _228  and  _229
REMARK   92  A    between atoms: _228  and  _231
REMARK   93  A    between atoms: _231  and  _232
REMARK   94  A    between atoms: _235  and  _237
REMARK   95  A    between atoms: _237  and  _238
REMARK   96  A    between atoms: _240  and  _242
REMARK   97  A    between atoms: _242  and  _243
REMARK   98  A    between atoms: _245  and  _247
REMARK   99  A    between atoms: _247  and  _248
REMARK  100  A    between atoms: _247  and  _250
REMARK  101  A    between atoms: _250  and  _251
REMARK  102  A    between atoms: _257  and  _259
REMARK  103  A    between atoms: _259  and  _260
REMARK  104  A    between atoms: _259  and  _262
REMARK  105  A    between atoms: _262  and  _263
REMARK  106  A    between atoms: _268  and  _270
REMARK  107  A    between atoms: _270  and  _271
REMARK  108  A    between atoms: _270  and  _273
REMARK  109  A    between atoms: _273  and  _274
REMARK  110  A    between atoms: _274  and  _275
REMARK  111  A    between atoms: _275  and  _276
REMARK                            x       y       z     vdW  Elec       q    Type
REMARK                         _______ _______ _______ _____ _____    ______ ____
ROOT
ATOM      1  CA  ASP A   1     -36.250  11.035   2.346  0.00  0.00    +0.144 C 
ENDROOT
BRANCH   1   2
ATOM      2  N   ASP A   1     -35.637  12.076   3.178  0.00  0.00    -0.239 NA
ATOM      3  H   ASP A   1     -36.242  12.650   3.800  0.00  0.00    +0.142 HD
ENDBRANCH   1   2
BRANCH   1   4
ATOM      4  C   ASP A   1     -36.050  11.334   0.866  0.00  0.00    +0.225 C 
ATOM      5  O   ASP A   1     -36.088  10.429   0.032  0.00  0.00    -0.287 OA
ENDBRANCH   1   4
BRANCH   1   6
ATOM      6  CB  ASP A   1     -37.749  10.881   2.639  0.00  0.00    +0.139 C 
BRANCH   6   7
ATOM      7  CG  ASP A   1     -38.033  10.395   4.051  0.00  0.00    +0.367 C 
ATOM      8  OD2 ASP A   1     -37.167   9.724   4.652  0.00  0.00    -0.246 OA
ATOM      9  OD1 ASP A   1     -39.139  10.680   4.557  0.00  0.00    -0.246 OA
ENDBRANCH   6   7
ENDBRANCH   1   6
TORSDOF 4
REMARK  Name = ../refined-set-2016/3gr2/3gr2_pocket.pdb
REMARK  111 active torsions:
REMARK  status: ('A' for Active; 'I' for Inactive)
REMARK    1  A    between atoms: _1  and  _3
REMARK    2  A    between atoms: _3  and  _4
REMARK    3  A    between atoms: _3  and  _6
REMARK    4  A    between atoms: _6  and  _7
REMARK    5  A    between atoms: _7  and  _8
REMARK    6  A    between atoms: _11  and  _13
REMARK    7  A    between atoms: _13  and  _14
REMARK    8  A    between atoms: _16  and  _18
REMARK    9  A    between atoms: _18  and  _19
REMARK   10  A    between atoms: _18  and  _21
REMARK   11  A    between atoms: _21  and  _22
REMARK   12  A    between atoms: _24  and  _26
REMARK   13  A    between atoms: _26  and  _27
REMARK   14  A    between atoms: _26  and  _29
REMARK   15  A    between atoms: _29  and  _30
REMARK   16  A    between atoms: _30  and  _31
REMARK   17  A    between atoms: _31  and  _32
REMARK   18  A    between atoms: _32  and  _33
REMARK   19  A    between atoms: _37  and  _39
REMARK   20  A    between atoms: _39  and  _40
REMARK   21  A    between atoms: _39  and  _42
REMARK   22  A    between atoms: _42  and  _43
REMARK   23  A    between atoms: _46  and  _48
REMARK   24  A    between atoms: _48  and  _49
REMARK   25  A    between atoms: _48  and  _51
REMARK   26  A    between atoms: _51  and  _52
REMARK   27  A    between atoms: _52  and  _53
REMARK   28  A    between atoms: _58  and  _60
REMARK   29  A    between atoms: _60  and  _61
REMARK   30  A    between atoms: _60  and  _63
REMARK   31  A    between atoms: _66  and  _68
REMARK   32  A    between atoms: _68  and  _69
REMARK   33  A    between atoms: _68  and  _71
REMARK   34  A    between atoms: _71  and  _72
REMARK   35  A    between atoms: _75  and  _77
REMARK   36  A    between atoms: _77  and  _78
REMARK   37  A    between atoms: _77  and  _80
REMARK   38  A    between atoms: _80  and  _81
REMARK   39  A    between atoms: _86  and  _87
REMARK   40  A    between atoms: _89  and  _91
REMARK   41  A    between atoms: _91  and  _92
REMARK   42  A    between atoms: _95  and  _97
REMARK   43  A    between atoms: _97  and  _98
REMARK   44  A    between atoms: _97  and  _100
REMARK   45  A    between atoms: _100  and  _101
REMARK   46  A    between atoms: _106  and  _108
REMARK   47  A    between atoms: _108  and  _109
REMARK   48  A    between atoms: _111  and  _113
REMARK   49  A    between atoms: _113  and  _114
REMARK   50  A    between atoms: _113  and  _116
REMARK   51  A    between atoms: _116  and  _117
REMARK   52  A    between atoms: _117  and  _118
REMARK   53  A    between atoms: _118  and  _119
REMARK   54  A    between atoms: _128  and  _130
REMARK   55  A    between atoms: _130  and  _131
REMARK   56  A    between atoms: _130  and  _133
REMARK   57  A    between atoms: _136  and  _138
REMARK   58  A    between atoms: _138  and  _139
REMARK   59  A    between atoms: _138  and  _141
REMARK   60  A    between atoms: _141  and  _142
REMARK   61  A    between atoms: _147  and  _149
REMARK   62  A    between atoms: _149  and  _150
REMARK   63  A    between atoms: _149  and  _152
REMARK   64  A    between atoms: _155  and  _157
REMARK   65  A    between atoms: _157  and  _158
REMARK   66  A    between atoms: _157  and  _160
REMARK   67  A    between atoms: _160  and  _161
REMARK   68  A    between atoms: _164  and  _165
REMARK   69  A    between atoms: _170  and  _172
REMARK   70  A    between atoms: _172  and  _173
REMARK   71  A    between atoms: _175  and  _177
REMARK   72  A    between atoms: _177  and  _178
REMARK   73  A    between atoms: _181  and  _183
REMARK   74  A    between atoms: _183  and  _184
REMARK   75  A    between atoms: _183  and  _186
REMARK   76  A    between atoms: _186  and  _187
REMARK   77  A    between atoms: _190  and  _192
REMARK   78  A    between atoms: _192  and  _193
REMARK   79  A    between atoms: _196  and  _198
REMARK   80  A    between atoms: _198  and  _199
REMARK   81  A    between atoms: _198  and  _201
REMARK   82  A    between atoms: _201  and  _202
REMARK   83  A    between atoms: _207  and  _208
REMARK   84  A    between atoms: _210  and  _212
REMARK   85  A    between atoms: _212  and  _213
REMARK   86  A    between atoms: _215  and  _217
REMARK   87  A    between atoms: _217  and  _218
REMARK   88  A    between atoms: _220  and  _222
REMARK   89  A    between atoms: _222  and  _223
REMARK   90  A    between atoms: _226  and  _228
REMARK   91  A    between atoms: _228  and  _229
REMARK   92  A    between atoms: _228  and  _231
REMARK   93  A    between atoms: _231  and  _232
REMARK   94  A    between atoms: _235  and  _237
REMARK   95  A    between atoms: _237  and  _238
REMARK   96  A    between atoms: _240  and  _242
REMARK   97  A    between atoms: _242  and  _243
REMARK   98  A    between atoms: _245  and  _247
REMARK   99  A    between atoms: _247  and  _248
REMARK  100  A    between atoms: _247  and  _250
REMARK  101  A    between atoms: _250  and  _251
REMARK  102  A    between atoms: _257  and  _259
REMARK  103  A    between atoms: _259  and  _260
REMARK  104  A    between atoms: _259  and  _262
REMARK  105  A    between atoms: _262  and  _263
REMARK  106  A    between atoms: _268  and  _270
REMARK  107  A    between atoms: _270  and  _271
REMARK  108  A    between atoms: _270  and  _273
REMARK  109  A    between atoms: _273  and  _274
REMARK  110  A    between atoms: _274  and  _275
REMARK  111  A    between atoms: _275  and  _276
REMARK                            x       y       z     vdW  Elec       q    Type
REMARK                         _______ _______ _______ _____ _____    ______ ____
ROOT
ATOM      1  C   TYR A   1     -27.862  11.945  16.506  0.00  0.00    +0.239 C 
ATOM      2  O   TYR A   1     -28.760  12.748  16.242  0.00  0.00    -0.274 OA
ATOM      3  N   ALA A   2     -27.312  11.145  15.596  0.00  0.00    -0.297 N 
ATOM      4  H   ALA A   2     -26.667  10.389  15.904  0.00  0.00    +0.150 HD
ENDROOT
BRANCH   3   5
ATOM      5  CA  ALA A   2     -27.597  11.308  14.171  0.00  0.00    +0.149 C 
ATOM      6  CB  ALA A   2     -26.708  12.403  13.588  0.00  0.00    +0.031 C 
BRANCH   5   7
ATOM      7  C   ALA A   2     -27.426  10.024  13.372  0.00  0.00    +0.241 C 
ATOM      8  O   ALA A   2     -26.358   9.407  13.407  0.00  0.00    -0.273 OA
ATOM      9  N   ASN A   3     -28.469   9.632  12.642  0.00  0.00    -0.298 N 
ATOM     10  H   ASN A   3     -29.376  10.131  12.738  0.00  0.00    +0.150 HD
BRANCH   9  11
ATOM     11  CA  ASN A   3     -28.360   8.511  11.707  0.00  0.00    +0.146 C 
BRANCH  11  12
ATOM     12  C   ASN A   3     -27.421   8.798  10.540  0.00  0.00    +0.227 C 
ATOM     13  O   ASN A   3     -26.729   7.899  10.064  0.00  0.00    -0.286 OA
ENDBRANCH  11  12
BRANCH  11  14
ATOM     14  CB  ASN A   3     -29.733   8.105  11.175  0.00  0.00    +0.112 C 
BRANCH  14  15
ATOM     15  CG  ASN A   3     -30.645   7.575  12.257  0.00  0.00    +0.222 C 
ATOM     16  OD1 ASN A   3     -30.375   6.533  12.855  0.00  0.00    -0.275 OA
ATOM     17  ND2 ASN A   3     -31.736   8.288  12.516  0.00  0.00    -0.329 N 
ATOM     18 HD21 ASN A   3     -32.402   7.971  13.249  0.00  0.00    +0.145 HD
ATOM     19 HD22 ASN A   3     -31.924   9.163  11.985  0.00  0.00    +0.145 HD
ENDBRANCH  14  15
ENDBRANCH  11  14
ENDBRANCH   9  11
ENDBRANCH   5   7
ENDBRANCH   3   5
BRANCH   1  20
ATOM     20  CA  TYR A   1     -27.311  11.839  17.924  0.00  0.00    +0.149 C 
BRANCH  20  21
ATOM     21  N   TYR A   1     -26.882  13.155  18.397  0.00  0.00    -0.238 NA
ATOM     22  H   TYR A   1     -27.150  13.449  19.358  0.00  0.00    +0.142 HD
ENDBRANCH  20  21
BRANCH  20  23
ATOM     23  CB  TYR A   1     -28.367  11.264  18.868  0.00  0.00    +0.053 C 
BRANCH  23  24
ATOM     24  CG  TYR A   1     -28.794   9.850  18.553  0.00  0.00    -0.020 A 
ATOM     25  CD2 TYR A   1     -27.966   8.769  18.858  0.00  0.00    -0.001 A 
ATOM     26  CE2 TYR A   1     -28.355   7.468  18.577  0.00  0.00    +0.036 A 
ATOM     27  CZ  TYR A   1     -29.586   7.238  17.988  0.00  0.00    +0.134 A 
ATOM     28  CE1 TYR A   1     -30.430   8.292  17.677  0.00  0.00    +0.036 A 
ATOM     29  CD1 TYR A   1     -30.030   9.592  17.962  0.00  0.00    -0.001 A 
BRANCH  27  30
ATOM     30  OH  TYR A   1     -29.972   5.952  17.714  0.00  0.00    -0.506 OA
ATOM     31  HH  TYR A   1     -30.870   5.960  17.297  0.00  0.00    +0.292 HD
ENDBRANCH  27  30
ENDBRANCH  23  24
ENDBRANCH  20  23
ENDBRANCH   1  20
TORSDOF 11
REMARK  Name = ../refined-set-2016/3gr2/3gr2_pocket.pdb
REMARK  111 active torsions:
REMARK  status: ('A' for Active; 'I' for Inactive)
REMARK    1  A    between atoms: _1  and  _3
REMARK    2  A    between atoms: _3  and  _4
REMARK    3  A    between atoms: _3  and  _6
REMARK    4  A    between atoms: _6  and  _7
REMARK    5  A    between atoms: _7  and  _8
REMARK    6  A    between atoms: _11  and  _13
REMARK    7  A    between atoms: _13  and  _14
REMARK    8  A    between atoms: _16  and  _18
REMARK    9  A    between atoms: _18  and  _19
REMARK   10  A    between atoms: _18  and  _21
REMARK   11  A    between atoms: _21  and  _22
REMARK   12  A    between atoms: _24  and  _26
REMARK   13  A    between atoms: _26  and  _27
REMARK   14  A    between atoms: _26  and  _29
REMARK   15  A    between atoms: _29  and  _30
REMARK   16  A    between atoms: _30  and  _31
REMARK   17  A    between atoms: _31  and  _32
REMARK   18  A    between atoms: _32  and  _33
REMARK   19  A    between atoms: _37  and  _39
REMARK   20  A    between atoms: _39  and  _40
REMARK   21  A    between atoms: _39  and  _42
REMARK   22  A    between atoms: _42  and  _43
REMARK   23  A    between atoms: _46  and  _48
REMARK   24  A    between atoms: _48  and  _49
REMARK   25  A    between atoms: _48  and  _51
REMARK   26  A    between atoms: _51  and  _52
REMARK   27  A    between atoms: _52  and  _53
REMARK   28  A    between atoms: _58  and  _60
REMARK   29  A    between atoms: _60  and  _61
REMARK   30  A    between atoms: _60  and  _63
REMARK   31  A    between atoms: _66  and  _68
REMARK   32  A    between atoms: _68  and  _69
REMARK   33  A    between atoms: _68  and  _71
REMARK   34  A    between atoms: _71  and  _72
REMARK   35  A    between atoms: _75  and  _77
REMARK   36  A    between atoms: _77  and  _78
REMARK   37  A    between atoms: _77  and  _80
REMARK   38  A    between atoms: _80  and  _81
REMARK   39  A    between atoms: _86  and  _87
REMARK   40  A    between atoms: _89  and  _91
REMARK   41  A    between atoms: _91  and  _92
REMARK   42  A    between atoms: _95  and  _97
REMARK   43  A    between atoms: _97  and  _98
REMARK   44  A    between atoms: _97  and  _100
REMARK   45  A    between atoms: _100  and  _101
REMARK   46  A    between atoms: _106  and  _108
REMARK   47  A    between atoms: _108  and  _109
REMARK   48  A    between atoms: _111  and  _113
REMARK   49  A    between atoms: _113  and  _114
REMARK   50  A    between atoms: _113  and  _116
REMARK   51  A    between atoms: _116  and  _117
REMARK   52  A    between atoms: _117  and  _118
REMARK   53  A    between atoms: _118  and  _119
REMARK   54  A    between atoms: _128  and  _130
REMARK   55  A    between atoms: _130  and  _131
REMARK   56  A    between atoms: _130  and  _133
REMARK   57  A    between atoms: _136  and  _138
REMARK   58  A    between atoms: _138  and  _139
REMARK   59  A    between atoms: _138  and  _141
REMARK   60  A    between atoms: _141  and  _142
REMARK   61  A    between atoms: _147  and  _149
REMARK   62  A    between atoms: _149  and  _150
REMARK   63  A    between atoms: _149  and  _152
REMARK   64  A    between atoms: _155  and  _157
REMARK   65  A    between atoms: _157  and  _158
REMARK   66  A    between atoms: _157  and  _160
REMARK   67  A    between atoms: _160  and  _161
REMARK   68  A    between atoms: _164  and  _165
REMARK   69  A    between atoms: _170  and  _172
REMARK   70  A    between atoms: _172  and  _173
REMARK   71  A    between atoms: _175  and  _177
REMARK   72  A    between atoms: _177  and  _178
REMARK   73  A    between atoms: _181  and  _183
REMARK   74  A    between atoms: _183  and  _184
REMARK   75  A    between atoms: _183  and  _186
REMARK   76  A    between atoms: _186  and  _187
REMARK   77  A    between atoms: _190  and  _192
REMARK   78  A    between atoms: _192  and  _193
REMARK   79  A    between atoms: _196  and  _198
REMARK   80  A    between atoms: _198  and  _199
REMARK   81  A    between atoms: _198  and  _201
REMARK   82  A    between atoms: _201  and  _202
REMARK   83  A    between atoms: _207  and  _208
REMARK   84  A    between atoms: _210  and  _212
REMARK   85  A    between atoms: _212  and  _213
REMARK   86  A    between atoms: _215  and  _217
REMARK   87  A    between atoms: _217  and  _218
REMARK   88  A    between atoms: _220  and  _222
REMARK   89  A    between atoms: _222  and  _223
REMARK   90  A    between atoms: _226  and  _228
REMARK   91  A    between atoms: _228  and  _229
REMARK   92  A    between atoms: _228  and  _231
REMARK   93  A    between atoms: _231  and  _232
REMARK   94  A    between atoms: _235  and  _237
REMARK   95  A    between atoms: _237  and  _238
REMARK   96  A    between atoms: _240  and  _242
REMARK   97  A    between atoms: _242  and  _243
REMARK   98  A    between atoms: _245  and  _247
REMARK   99  A    between atoms: _247  and  _248
REMARK  100  A    between atoms: _247  and  _250
REMARK  101  A    between atoms: _250  and  _251
REMARK  102  A    between atoms: _257  and  _259
REMARK  103  A    between atoms: _259  and  _260
REMARK  104  A    between atoms: _259  and  _262
REMARK  105  A    between atoms: _262  and  _263
REMARK  106  A    between atoms: _268  and  _270
REMARK  107  A    between atoms: _270  and  _271
REMARK  108  A    between atoms: _270  and  _273
REMARK  109  A    between atoms: _273  and  _274
REMARK  110  A    between atoms: _274  and  _275
REMARK  111  A    between atoms: _275  and  _276
REMARK                            x       y       z     vdW  Elec       q    Type
REMARK                         _______ _______ _______ _____ _____    ______ ____
ROOT
ATOM      1  CA  GLY A   1     -45.074  -3.106  14.041  0.00  0.00    +0.156 C 
ENDROOT
BRANCH   1   2
ATOM      2  N   GLY A   1     -45.117  -4.200  13.081  0.00  0.00    -0.238 NA
ATOM      3  H   GLY A   1     -44.809  -4.032  12.102  0.00  0.00    +0.142 HD
ENDBRANCH   1   2
BRANCH   1   4
ATOM      4  C   GLY A   1     -46.440  -2.464  14.083  0.00  0.00    +0.226 C 
ATOM      5  O   GLY A   1     -47.211  -2.588  13.130  0.00  0.00    -0.287 OA
ENDBRANCH   1   4
TORSDOF 2
REMARK  Name = ../refined-set-2016/3gr2/3gr2_pocket.pdb
REMARK  111 active torsions:
REMARK  status: ('A' for Active; 'I' for Inactive)
REMARK    1  A    between atoms: _1  and  _3
REMARK    2  A    between atoms: _3  and  _4
REMARK    3  A    between atoms: _3  and  _6
REMARK    4  A    between atoms: _6  and  _7
REMARK    5  A    between atoms: _7  and  _8
REMARK    6  A    between atoms: _11  and  _13
REMARK    7  A    between atoms: _13  and  _14
REMARK    8  A    between atoms: _16  and  _18
REMARK    9  A    between atoms: _18  and  _19
REMARK   10  A    between atoms: _18  and  _21
REMARK   11  A    between atoms: _21  and  _22
REMARK   12  A    between atoms: _24  and  _26
REMARK   13  A    between atoms: _26  and  _27
REMARK   14  A    between atoms: _26  and  _29
REMARK   15  A    between atoms: _29  and  _30
REMARK   16  A    between atoms: _30  and  _31
REMARK   17  A    between atoms: _31  and  _32
REMARK   18  A    between atoms: _32  and  _33
REMARK   19  A    between atoms: _37  and  _39
REMARK   20  A    between atoms: _39  and  _40
REMARK   21  A    between atoms: _39  and  _42
REMARK   22  A    between atoms: _42  and  _43
REMARK   23  A    between atoms: _46  and  _48
REMARK   24  A    between atoms: _48  and  _49
REMARK   25  A    between atoms: _48  and  _51
REMARK   26  A    between atoms: _51  and  _52
REMARK   27  A    between atoms: _52  and  _53
REMARK   28  A    between atoms: _58  and  _60
REMARK   29  A    between atoms: _60  and  _61
REMARK   30  A    between atoms: _60  and  _63
REMARK   31  A    between atoms: _66  and  _68
REMARK   32  A    between atoms: _68  and  _69
REMARK   33  A    between atoms: _68  and  _71
REMARK   34  A    between atoms: _71  and  _72
REMARK   35  A    between atoms: _75  and  _77
REMARK   36  A    between atoms: _77  and  _78
REMARK   37  A    between atoms: _77  and  _80
REMARK   38  A    between atoms: _80  and  _81
REMARK   39  A    between atoms: _86  and  _87
REMARK   40  A    between atoms: _89  and  _91
REMARK   41  A    between atoms: _91  and  _92
REMARK   42  A    between atoms: _95  and  _97
REMARK   43  A    between atoms: _97  and  _98
REMARK   44  A    between atoms: _97  and  _100
REMARK   45  A    between atoms: _100  and  _101
REMARK   46  A    between atoms: _106  and  _108
REMARK   47  A    between atoms: _108  and  _109
REMARK   48  A    between atoms: _111  and  _113
REMARK   49  A    between atoms: _113  and  _114
REMARK   50  A    between atoms: _113  and  _116
REMARK   51  A    between atoms: _116  and  _117
REMARK   52  A    between atoms: _117  and  _118
REMARK   53  A    between atoms: _118  and  _119
REMARK   54  A    between atoms: _128  and  _130
REMARK   55  A    between atoms: _130  and  _131
REMARK   56  A    between atoms: _130  and  _133
REMARK   57  A    between atoms: _136  and  _138
REMARK   58  A    between atoms: _138  and  _139
REMARK   59  A    between atoms: _138  and  _141
REMARK   60  A    between atoms: _141  and  _142
REMARK   61  A    between atoms: _147  and  _149
REMARK   62  A    between atoms: _149  and  _150
REMARK   63  A    between atoms: _149  and  _152
REMARK   64  A    between atoms: _155  and  _157
REMARK   65  A    between atoms: _157  and  _158
REMARK   66  A    between atoms: _157  and  _160
REMARK   67  A    between atoms: _160  and  _161
REMARK   68  A    between atoms: _164  and  _165
REMARK   69  A    between atoms: _170  and  _172
REMARK   70  A    between atoms: _172  and  _173
REMARK   71  A    between atoms: _175  and  _177
REMARK   72  A    between atoms: _177  and  _178
REMARK   73  A    between atoms: _181  and  _183
REMARK   74  A    between atoms: _183  and  _184
REMARK   75  A    between atoms: _183  and  _186
REMARK   76  A    between atoms: _186  and  _187
REMARK   77  A    between atoms: _190  and  _192
REMARK   78  A    between atoms: _192  and  _193
REMARK   79  A    between atoms: _196  and  _198
REMARK   80  A    between atoms: _198  and  _199
REMARK   81  A    between atoms: _198  and  _201
REMARK   82  A    between atoms: _201  and  _202
REMARK   83  A    between atoms: _207  and  _208
REMARK   84  A    between atoms: _210  and  _212
REMARK   85  A    between atoms: _212  and  _213
REMARK   86  A    between atoms: _215  and  _217
REMARK   87  A    between atoms: _217  and  _218
REMARK   88  A    between atoms: _220  and  _222
REMARK   89  A    between atoms: _222  and  _223
REMARK   90  A    between atoms: _226  and  _228
REMARK   91  A    between atoms: _228  and  _229
REMARK   92  A    between atoms: _228  and  _231
REMARK   93  A    between atoms: _231  and  _232
REMARK   94  A    between atoms: _235  and  _237
REMARK   95  A    between atoms: _237  and  _238
REMARK   96  A    between atoms: _240  and  _242
REMARK   97  A    between atoms: _242  and  _243
REMARK   98  A    between atoms: _245  and  _247
REMARK   99  A    between atoms: _247  and  _248
REMARK  100  A    between atoms: _247  and  _250
REMARK  101  A    between atoms: _250  and  _251
REMARK  102  A    between atoms: _257  and  _259
REMARK  103  A    between atoms: _259  and  _260
REMARK  104  A    between atoms: _259  and  _262
REMARK  105  A    between atoms: _262  and  _263
REMARK  106  A    between atoms: _268  and  _270
REMARK  107  A    between atoms: _270  and  _271
REMARK  108  A    between atoms: _270  and  _273
REMARK  109  A    between atoms: _273  and  _274
REMARK  110  A    between atoms: _274  and  _275
REMARK  111  A    between atoms: _275  and  _276
REMARK                            x       y       z     vdW  Elec       q    Type
REMARK                         _______ _______ _______ _____ _____    ______ ____
ROOT
ATOM      1  NE  ARG A   1     -46.067   6.813  13.464  0.00  0.00    -0.265 N 
ATOM      2  HE  ARG A   1     -46.859   7.328  13.898  0.00  0.00    +0.259 HD
ATOM      3  CZ  ARG A   1     -45.005   7.519  13.081  0.00  0.00    +0.342 C 
ATOM      4  NH2 ARG A   1     -44.986   8.833  13.260  0.00  0.00    -0.292 N 
ATOM      5 HH21 ARG A   1     -45.799   9.310  13.699  0.00  0.00    +0.255 HD
ATOM      6 HH22 ARG A   1     -44.158   9.387  12.962  0.00  0.00    +0.255 HD
ATOM      7  NH1 ARG A   1     -43.958   6.919  12.526  0.00  0.00    -0.292 N 
ATOM      8 HH11 ARG A   1     -43.963   5.888  12.387  0.00  0.00    +0.255 HD
ATOM      9 HH12 ARG A   1     -43.134   7.480  12.230  0.00  0.00    +0.255 HD
ENDROOT
BRANCH   1  10
ATOM     10  CD  ARG A   1     -46.197   5.366  13.317  0.00  0.00    +0.174 C 
BRANCH  10  11
ATOM     11  CG  ARG A   1     -47.265   4.802  14.233  0.00  0.00    +0.045 C 
BRANCH  11  12
ATOM     12  CB  ARG A   1     -47.398   3.298  14.063  0.00  0.00    +0.029 C 
BRANCH  12  13
ATOM     13  CA  ARG A   1     -48.410   2.643  15.005  0.00  0.00    +0.133 C 
BRANCH  13  14
ATOM     14  N   ARG A   1     -48.423   1.205  14.811  0.00  0.00    -0.239 NA
ATOM     15  H   ARG A   1     -48.846   0.827  13.940  0.00  0.00    +0.142 HD
ENDBRANCH  13  14
BRANCH  13  16
ATOM     16  C   ARG A   1     -49.811   3.170  14.738  0.00  0.00    +0.224 C 
ATOM     17  O   ARG A   1     -50.376   2.933  13.665  0.00  0.00    -0.287 OA
ENDBRANCH  13  16
ENDBRANCH  12  13
ENDBRANCH  11  12
ENDBRANCH  10  11
ENDBRANCH   1  10
TORSDOF 6
REMARK  Name = ../refined-set-2016/3gr2/3gr2_pocket.pdb
REMARK  111 active torsions:
REMARK  status: ('A' for Active; 'I' for Inactive)
REMARK    1  A    between atoms: _1  and  _3
REMARK    2  A    between atoms: _3  and  _4
REMARK    3  A    between atoms: _3  and  _6
REMARK    4  A    between atoms: _6  and  _7
REMARK    5  A    between atoms: _7  and  _8
REMARK    6  A    between atoms: _11  and  _13
REMARK    7  A    between atoms: _13  and  _14
REMARK    8  A    between atoms: _16  and  _18
REMARK    9  A    between atoms: _18  and  _19
REMARK   10  A    between atoms: _18  and  _21
REMARK   11  A    between atoms: _21  and  _22
REMARK   12  A    between atoms: _24  and  _26
REMARK   13  A    between atoms: _26  and  _27
REMARK   14  A    between atoms: _26  and  _29
REMARK   15  A    between atoms: _29  and  _30
REMARK   16  A    between atoms: _30  and  _31
REMARK   17  A    between atoms: _31  and  _32
REMARK   18  A    between atoms: _32  and  _33
REMARK   19  A    between atoms: _37  and  _39
REMARK   20  A    between atoms: _39  and  _40
REMARK   21  A    between atoms: _39  and  _42
REMARK   22  A    between atoms: _42  and  _43
REMARK   23  A    between atoms: _46  and  _48
REMARK   24  A    between atoms: _48  and  _49
REMARK   25  A    between atoms: _48  and  _51
REMARK   26  A    between atoms: _51  and  _52
REMARK   27  A    between atoms: _52  and  _53
REMARK   28  A    between atoms: _58  and  _60
REMARK   29  A    between atoms: _60  and  _61
REMARK   30  A    between atoms: _60  and  _63
REMARK   31  A    between atoms: _66  and  _68
REMARK   32  A    between atoms: _68  and  _69
REMARK   33  A    between atoms: _68  and  _71
REMARK   34  A    between atoms: _71  and  _72
REMARK   35  A    between atoms: _75  and  _77
REMARK   36  A    between atoms: _77  and  _78
REMARK   37  A    between atoms: _77  and  _80
REMARK   38  A    between atoms: _80  and  _81
REMARK   39  A    between atoms: _86  and  _87
REMARK   40  A    between atoms: _89  and  _91
REMARK   41  A    between atoms: _91  and  _92
REMARK   42  A    between atoms: _95  and  _97
REMARK   43  A    between atoms: _97  and  _98
REMARK   44  A    between atoms: _97  and  _100
REMARK   45  A    between atoms: _100  and  _101
REMARK   46  A    between atoms: _106  and  _108
REMARK   47  A    between atoms: _108  and  _109
REMARK   48  A    between atoms: _111  and  _113
REMARK   49  A    between atoms: _113  and  _114
REMARK   50  A    between atoms: _113  and  _116
REMARK   51  A    between atoms: _116  and  _117
REMARK   52  A    between atoms: _117  and  _118
REMARK   53  A    between atoms: _118  and  _119
REMARK   54  A    between atoms: _128  and  _130
REMARK   55  A    between atoms: _130  and  _131
REMARK   56  A    between atoms: _130  and  _133
REMARK   57  A    between atoms: _136  and  _138
REMARK   58  A    between atoms: _138  and  _139
REMARK   59  A    between atoms: _138  and  _141
REMARK   60  A    between atoms: _141  and  _142
REMARK   61  A    between atoms: _147  and  _149
REMARK   62  A    between atoms: _149  and  _150
REMARK   63  A    between atoms: _149  and  _152
REMARK   64  A    between atoms: _155  and  _157
REMARK   65  A    between atoms: _157  and  _158
REMARK   66  A    between atoms: _157  and  _160
REMARK   67  A    between atoms: _160  and  _161
REMARK   68  A    between atoms: _164  and  _165
REMARK   69  A    between atoms: _170  and  _172
REMARK   70  A    between atoms: _172  and  _173
REMARK   71  A    between atoms: _175  and  _177
REMARK   72  A    between atoms: _177  and  _178
REMARK   73  A    between atoms: _181  and  _183
REMARK   74  A    between atoms: _183  and  _184
REMARK   75  A    between atoms: _183  and  _186
REMARK   76  A    between atoms: _186  and  _187
REMARK   77  A    between atoms: _190  and  _192
REMARK   78  A    between atoms: _192  and  _193
REMARK   79  A    between atoms: _196  and  _198
REMARK   80  A    between atoms: _198  and  _199
REMARK   81  A    between atoms: _198  and  _201
REMARK   82  A    between atoms: _201  and  _202
REMARK   83  A    between atoms: _207  and  _208
REMARK   84  A    between atoms: _210  and  _212
REMARK   85  A    between atoms: _212  and  _213
REMARK   86  A    between atoms: _215  and  _217
REMARK   87  A    between atoms: _217  and  _218
REMARK   88  A    between atoms: _220  and  _222
REMARK   89  A    between atoms: _222  and  _223
REMARK   90  A    between atoms: _226  and  _228
REMARK   91  A    between atoms: _228  and  _229
REMARK   92  A    between atoms: _228  and  _231
REMARK   93  A    between atoms: _231  and  _232
REMARK   94  A    between atoms: _235  and  _237
REMARK   95  A    between atoms: _237  and  _238
REMARK   96  A    between atoms: _240  and  _242
REMARK   97  A    between atoms: _242  and  _243
REMARK   98  A    between atoms: _245  and  _247
REMARK   99  A    between atoms: _247  and  _248
REMARK  100  A    between atoms: _247  and  _250
REMARK  101  A    between atoms: _250  and  _251
REMARK  102  A    between atoms: _257  and  _259
REMARK  103  A    between atoms: _259  and  _260
REMARK  104  A    between atoms: _259  and  _262
REMARK  105  A    between atoms: _262  and  _263
REMARK  106  A    between atoms: _268  and  _270
REMARK  107  A    between atoms: _270  and  _271
REMARK  108  A    between atoms: _270  and  _273
REMARK  109  A    between atoms: _273  and  _274
REMARK  110  A    between atoms: _274  and  _275
REMARK  111  A    between atoms: _275  and  _276
REMARK                            x       y       z     vdW  Elec       q    Type
REMARK                         _______ _______ _______ _____ _____    ______ ____
ROOT
ATOM      1  C   VAL A   3     -39.725   0.242   6.849  0.00  0.00    +0.241 C 
ATOM      2  N   SER A   4     -39.706   1.511   6.449  0.00  0.00    -0.295 N 
ATOM      3  H   SER A   4     -39.790   2.263   7.162  0.00  0.00    +0.150 HD
ATOM      4  O   VAL A   3     -39.705  -0.712   6.064  0.00  0.00    -0.273 OA
ENDROOT
BRANCH   2   5
ATOM      5  CA  SER A   4     -39.571   1.884   5.042  0.00  0.00    +0.178 C 
BRANCH   5   6
ATOM      6  C   SER A   4     -38.100   1.983   4.647  0.00  0.00    +0.246 C 
ATOM      7  O   SER A   4     -37.265   2.364   5.472  0.00  0.00    -0.273 OA
ATOM      8  N   PRO A   5     -37.775   1.643   3.382  0.00  0.00    -0.272 N 
ATOM      9  CA  PRO A   5     -36.404   1.805   2.905  0.00  0.00    +0.152 C 
ATOM     10  CB  PRO A   5     -36.473   1.315   1.455  0.00  0.00    +0.031 C 
ATOM     11  CG  PRO A   5     -37.687   0.455   1.394  0.00  0.00    +0.024 C 
ATOM     12  CD  PRO A   5     -38.654   1.090   2.333  0.00  0.00    +0.094 C 
BRANCH   9  13
ATOM     13  C   PRO A   5     -35.986   3.271   2.943  0.00  0.00    +0.241 C 
ATOM     14  N   GLY A   6     -34.709   3.511   3.208  0.00  0.00    -0.295 N 
ATOM     15  H   GLY A   6     -34.070   2.710   3.383  0.00  0.00    +0.150 HD
ATOM     16  O   PRO A   5     -36.819   4.163   2.748  0.00  0.00    -0.273 OA
BRANCH  14  17
ATOM     17  CA  GLY A   6     -34.178   4.865   3.260  0.00  0.00    +0.176 C 
BRANCH  17  18
ATOM     18  C   GLY A   6     -32.684   4.806   3.067  0.00  0.00    +0.243 C 
ATOM     19  O   GLY A   6     -32.087   3.733   3.161  0.00  0.00    -0.273 OA
ATOM     20  N   ALA A   7     -32.072   5.950   2.782  0.00  0.00    -0.298 N 
ATOM     21  H   ALA A   7     -32.633   6.819   2.676  0.00  0.00    +0.150 HD
BRANCH  20  22
ATOM     22  CA  ALA A   7     -30.624   6.003   2.616  0.00  0.00    +0.137 C 
ATOM     23  CB  ALA A   7     -30.189   7.376   2.129  0.00  0.00    +0.030 C 
BRANCH  22  24
ATOM     24  C   ALA A   7     -29.930   5.647   3.929  0.00  0.00    +0.227 C 
ATOM     25  O   ALA A   7     -30.363   6.076   4.999  0.00  0.00    -0.286 OA
ENDBRANCH  22  24
ENDBRANCH  20  22
ENDBRANCH  17  18
ENDBRANCH  14  17
ENDBRANCH   9  13
ENDBRANCH   5   6
BRANCH   5  26
ATOM     26  CB  SER A   4     -40.268   3.220   4.769  0.00  0.00    +0.166 C 
BRANCH  26  27
ATOM     27  OG  SER A   4     -41.651   3.150   5.076  0.00  0.00    -0.380 OA
ATOM     28  H   SER A   4     -41.764   2.924   6.033  0.00  0.00    +0.211 HD
ENDBRANCH  26  27
ENDBRANCH   5  26
ENDBRANCH   2   5
BRANCH   1  29
ATOM     29  CA  VAL A   3     -39.819   0.009   8.365  0.00  0.00    +0.149 C 
BRANCH  29  31
ATOM     30  C   HIS A   2     -42.023  -1.036   8.277  0.00  0.00    +0.241 C 
ATOM     31  N   VAL A   3     -40.752  -1.075   8.669  0.00  0.00    -0.297 N 
ATOM     32  H   VAL A   3     -40.413  -1.899   9.206  0.00  0.00    +0.150 HD
ATOM     33  O   HIS A   2     -42.508  -0.093   7.646  0.00  0.00    -0.273 OA
BRANCH  30  34
ATOM     34  CA  HIS A   2     -42.883  -2.230   8.650  0.00  0.00    +0.155 C 
BRANCH  34  37
ATOM     35  C   VAL A   1     -45.047  -1.930   9.723  0.00  0.00    +0.238 C 
ATOM     36  O   VAL A   1     -44.720  -2.577  10.722  0.00  0.00    -0.274 OA
ATOM     37  N   HIS A   2     -44.287  -1.835   8.638  0.00  0.00    -0.297 N 
ATOM     38  H   HIS A   2     -44.703  -1.470   7.758  0.00  0.00    +0.150 HD
BRANCH  35  39
ATOM     39  CA  VAL A   1     -46.386  -1.200   9.670  0.00  0.00    +0.145 C 
BRANCH  39  40
ATOM     40  CB  VAL A   1     -46.170   0.279  10.126  0.00  0.00    +0.025 C 
ATOM     41  CG2 VAL A   1     -45.797   0.360  11.608  0.00  0.00    +0.002 C 
ATOM     42  CG1 VAL A   1     -47.396   1.141   9.822  0.00  0.00    +0.002 C 
ENDBRANCH  39  40
BRANCH  39  43
ATOM     43  N   VAL A   1     -47.416  -1.878  10.459  0.00  0.00    -0.238 NA
ATOM     44  H   VAL A   1     -47.172  -2.235  11.405  0.00  0.00    +0.142 HD
ENDBRANCH  39  43
ENDBRANCH  35  39
ENDBRANCH  34  37
BRANCH  34  45
ATOM     45  CB  HIS A   2     -42.617  -3.389   7.692  0.00  0.00    +0.076 C 
BRANCH  45  46
ATOM     46  CG  HIS A   2     -42.984  -4.730   8.245  0.00  0.00    +0.082 A 
ATOM     47  CD2 HIS A   2     -42.936  -5.221   9.506  0.00  0.00    +0.115 A 
ATOM     48  NE2 HIS A   2     -43.392  -6.516   9.454  0.00  0.00    -0.221 NA
ATOM     49  CE1 HIS A   2     -43.710  -6.809   8.206  0.00  0.00    +0.199 A 
ATOM     50  ND1 HIS A   2     -43.475  -5.747   7.456  0.00  0.00    -0.227 NA
ENDBRANCH  45  46
ENDBRANCH  34  45
ENDBRANCH  30  34
ENDBRANCH  29  31
BRANCH  29  51
ATOM     51  CB  VAL A   3     -38.417  -0.233   9.012  0.00  0.00    +0.027 C 
ATOM     52  CG2 VAL A   3     -37.550   1.025   8.948  0.00  0.00    +0.002 C 
ATOM     53  CG1 VAL A   3     -37.704  -1.434   8.386  0.00  0.00    +0.002 C 
ENDBRANCH  29  51
ENDBRANCH   1  29
TORSDOF 19
REMARK  Name = ../refined-set-2016/3gr2/3gr2_pocket.pdb
REMARK  111 active torsions:
REMARK  status: ('A' for Active; 'I' for Inactive)
REMARK    1  A    between atoms: _1  and  _3
REMARK    2  A    between atoms: _3  and  _4
REMARK    3  A    between atoms: _3  and  _6
REMARK    4  A    between atoms: _6  and  _7
REMARK    5  A    between atoms: _7  and  _8
REMARK    6  A    between atoms: _11  and  _13
REMARK    7  A    between atoms: _13  and  _14
REMARK    8  A    between atoms: _16  and  _18
REMARK    9  A    between atoms: _18  and  _19
REMARK   10  A    between atoms: _18  and  _21
REMARK   11  A    between atoms: _21  and  _22
REMARK   12  A    between atoms: _24  and  _26
REMARK   13  A    between atoms: _26  and  _27
REMARK   14  A    between atoms: _26  and  _29
REMARK   15  A    between atoms: _29  and  _30
REMARK   16  A    between atoms: _30  and  _31
REMARK   17  A    between atoms: _31  and  _32
REMARK   18  A    between atoms: _32  and  _33
REMARK   19  A    between atoms: _37  and  _39
REMARK   20  A    between atoms: _39  and  _40
REMARK   21  A    between atoms: _39  and  _42
REMARK   22  A    between atoms: _42  and  _43
REMARK   23  A    between atoms: _46  and  _48
REMARK   24  A    between atoms: _48  and  _49
REMARK   25  A    between atoms: _48  and  _51
REMARK   26  A    between atoms: _51  and  _52
REMARK   27  A    between atoms: _52  and  _53
REMARK   28  A    between atoms: _58  and  _60
REMARK   29  A    between atoms: _60  and  _61
REMARK   30  A    between atoms: _60  and  _63
REMARK   31  A    between atoms: _66  and  _68
REMARK   32  A    between atoms: _68  and  _69
REMARK   33  A    between atoms: _68  and  _71
REMARK   34  A    between atoms: _71  and  _72
REMARK   35  A    between atoms: _75  and  _77
REMARK   36  A    between atoms: _77  and  _78
REMARK   37  A    between atoms: _77  and  _80
REMARK   38  A    between atoms: _80  and  _81
REMARK   39  A    between atoms: _86  and  _87
REMARK   40  A    between atoms: _89  and  _91
REMARK   41  A    between atoms: _91  and  _92
REMARK   42  A    between atoms: _95  and  _97
REMARK   43  A    between atoms: _97  and  _98
REMARK   44  A    between atoms: _97  and  _100
REMARK   45  A    between atoms: _100  and  _101
REMARK   46  A    between atoms: _106  and  _108
REMARK   47  A    between atoms: _108  and  _109
REMARK   48  A    between atoms: _111  and  _113
REMARK   49  A    between atoms: _113  and  _114
REMARK   50  A    between atoms: _113  and  _116
REMARK   51  A    between atoms: _116  and  _117
REMARK   52  A    between atoms: _117  and  _118
REMARK   53  A    between atoms: _118  and  _119
REMARK   54  A    between atoms: _128  and  _130
REMARK   55  A    between atoms: _130  and  _131
REMARK   56  A    between atoms: _130  and  _133
REMARK   57  A    between atoms: _136  and  _138
REMARK   58  A    between atoms: _138  and  _139
REMARK   59  A    between atoms: _138  and  _141
REMARK   60  A    between atoms: _141  and  _142
REMARK   61  A    between atoms: _147  and  _149
REMARK   62  A    between atoms: _149  and  _150
REMARK   63  A    between atoms: _149  and  _152
REMARK   64  A    between atoms: _155  and  _157
REMARK   65  A    between atoms: _157  and  _158
REMARK   66  A    between atoms: _157  and  _160
REMARK   67  A    between atoms: _160  and  _161
REMARK   68  A    between atoms: _164  and  _165
REMARK   69  A    between atoms: _170  and  _172
REMARK   70  A    between atoms: _172  and  _173
REMARK   71  A    between atoms: _175  and  _177
REMARK   72  A    between atoms: _177  and  _178
REMARK   73  A    between atoms: _181  and  _183
REMARK   74  A    between atoms: _183  and  _184
REMARK   75  A    between atoms: _183  and  _186
REMARK   76  A    between atoms: _186  and  _187
REMARK   77  A    between atoms: _190  and  _192
REMARK   78  A    between atoms: _192  and  _193
REMARK   79  A    between atoms: _196  and  _198
REMARK   80  A    between atoms: _198  and  _199
REMARK   81  A    between atoms: _198  and  _201
REMARK   82  A    between atoms: _201  and  _202
REMARK   83  A    between atoms: _207  and  _208
REMARK   84  A    between atoms: _210  and  _212
REMARK   85  A    between atoms: _212  and  _213
REMARK   86  A    between atoms: _215  and  _217
REMARK   87  A    between atoms: _217  and  _218
REMARK   88  A    between atoms: _220  and  _222
REMARK   89  A    between atoms: _222  and  _223
REMARK   90  A    between atoms: _226  and  _228
REMARK   91  A    between atoms: _228  and  _229
REMARK   92  A    between atoms: _228  and  _231
REMARK   93  A    between atoms: _231  and  _232
REMARK   94  A    between atoms: _235  and  _237
REMARK   95  A    between atoms: _237  and  _238
REMARK   96  A    between atoms: _240  and  _242
REMARK   97  A    between atoms: _242  and  _243
REMARK   98  A    between atoms: _245  and  _247
REMARK   99  A    between atoms: _247  and  _248
REMARK  100  A    between atoms: _247  and  _250
REMARK  101  A    between atoms: _250  and  _251
REMARK  102  A    between atoms: _257  and  _259
REMARK  103  A    between atoms: _259  and  _260
REMARK  104  A    between atoms: _259  and  _262
REMARK  105  A    between atoms: _262  and  _263
REMARK  106  A    between atoms: _268  and  _270
REMARK  107  A    between atoms: _270  and  _271
REMARK  108  A    between atoms: _270  and  _273
REMARK  109  A    between atoms: _273  and  _274
REMARK  110  A    between atoms: _274  and  _275
REMARK  111  A    between atoms: _275  and  _276
REMARK                            x       y       z     vdW  Elec       q    Type
REMARK                         _______ _______ _______ _____ _____    ______ ____
ROOT
ATOM      1  CA  ASP A   1     -30.898   2.440   6.640  0.00  0.00    +0.144 C 
ENDROOT
BRANCH   1   2
ATOM      2  N   ASP A   1     -30.011   3.107   5.692  0.00  0.00    -0.239 NA
ATOM      3  H   ASP A   1     -30.239   3.080   4.678  0.00  0.00    +0.142 HD
ENDBRANCH   1   2
BRANCH   1   4
ATOM      4  C   ASP A   1     -30.251   1.222   7.293  0.00  0.00    +0.225 C 
ATOM      5  O   ASP A   1     -30.329   1.060   8.513  0.00  0.00    -0.287 OA
ENDBRANCH   1   4
BRANCH   1   6
ATOM      6  CB  ASP A   1     -32.277   2.110   6.027  0.00  0.00    +0.139 C 
BRANCH   6   7
ATOM      7  CG  ASP A   1     -32.203   1.277   4.745  0.00  0.00    +0.367 C 
ATOM      8  OD2 ASP A   1     -31.102   0.889   4.296  0.00  0.00    -0.246 OA
ATOM      9  OD1 ASP A   1     -33.285   1.015   4.173  0.00  0.00    -0.246 OA
ENDBRANCH   6   7
ENDBRANCH   1   6
TORSDOF 4
REMARK  Name = ../refined-set-2016/3gr2/3gr2_pocket.pdb
REMARK  111 active torsions:
REMARK  status: ('A' for Active; 'I' for Inactive)
REMARK    1  A    between atoms: _1  and  _3
REMARK    2  A    between atoms: _3  and  _4
REMARK    3  A    between atoms: _3  and  _6
REMARK    4  A    between atoms: _6  and  _7
REMARK    5  A    between atoms: _7  and  _8
REMARK    6  A    between atoms: _11  and  _13
REMARK    7  A    between atoms: _13  and  _14
REMARK    8  A    between atoms: _16  and  _18
REMARK    9  A    between atoms: _18  and  _19
REMARK   10  A    between atoms: _18  and  _21
REMARK   11  A    between atoms: _21  and  _22
REMARK   12  A    between atoms: _24  and  _26
REMARK   13  A    between atoms: _26  and  _27
REMARK   14  A    between atoms: _26  and  _29
REMARK   15  A    between atoms: _29  and  _30
REMARK   16  A    between atoms: _30  and  _31
REMARK   17  A    between atoms: _31  and  _32
REMARK   18  A    between atoms: _32  and  _33
REMARK   19  A    between atoms: _37  and  _39
REMARK   20  A    between atoms: _39  and  _40
REMARK   21  A    between atoms: _39  and  _42
REMARK   22  A    between atoms: _42  and  _43
REMARK   23  A    between atoms: _46  and  _48
REMARK   24  A    between atoms: _48  and  _49
REMARK   25  A    between atoms: _48  and  _51
REMARK   26  A    between atoms: _51  and  _52
REMARK   27  A    between atoms: _52  and  _53
REMARK   28  A    between atoms: _58  and  _60
REMARK   29  A    between atoms: _60  and  _61
REMARK   30  A    between atoms: _60  and  _63
REMARK   31  A    between atoms: _66  and  _68
REMARK   32  A    between atoms: _68  and  _69
REMARK   33  A    between atoms: _68  and  _71
REMARK   34  A    between atoms: _71  and  _72
REMARK   35  A    between atoms: _75  and  _77
REMARK   36  A    between atoms: _77  and  _78
REMARK   37  A    between atoms: _77  and  _80
REMARK   38  A    between atoms: _80  and  _81
REMARK   39  A    between atoms: _86  and  _87
REMARK   40  A    between atoms: _89  and  _91
REMARK   41  A    between atoms: _91  and  _92
REMARK   42  A    between atoms: _95  and  _97
REMARK   43  A    between atoms: _97  and  _98
REMARK   44  A    between atoms: _97  and  _100
REMARK   45  A    between atoms: _100  and  _101
REMARK   46  A    between atoms: _106  and  _108
REMARK   47  A    between atoms: _108  and  _109
REMARK   48  A    between atoms: _111  and  _113
REMARK   49  A    between atoms: _113  and  _114
REMARK   50  A    between atoms: _113  and  _116
REMARK   51  A    between atoms: _116  and  _117
REMARK   52  A    between atoms: _117  and  _118
REMARK   53  A    between atoms: _118  and  _119
REMARK   54  A    between atoms: _128  and  _130
REMARK   55  A    between atoms: _130  and  _131
REMARK   56  A    between atoms: _130  and  _133
REMARK   57  A    between atoms: _136  and  _138
REMARK   58  A    between atoms: _138  and  _139
REMARK   59  A    between atoms: _138  and  _141
REMARK   60  A    between atoms: _141  and  _142
REMARK   61  A    between atoms: _147  and  _149
REMARK   62  A    between atoms: _149  and  _150
REMARK   63  A    between atoms: _149  and  _152
REMARK   64  A    between atoms: _155  and  _157
REMARK   65  A    between atoms: _157  and  _158
REMARK   66  A    between atoms: _157  and  _160
REMARK   67  A    between atoms: _160  and  _161
REMARK   68  A    between atoms: _164  and  _165
REMARK   69  A    between atoms: _170  and  _172
REMARK   70  A    between atoms: _172  and  _173
REMARK   71  A    between atoms: _175  and  _177
REMARK   72  A    between atoms: _177  and  _178
REMARK   73  A    between atoms: _181  and  _183
REMARK   74  A    between atoms: _183  and  _184
REMARK   75  A    between atoms: _183  and  _186
REMARK   76  A    between atoms: _186  and  _187
REMARK   77  A    between atoms: _190  and  _192
REMARK   78  A    between atoms: _192  and  _193
REMARK   79  A    between atoms: _196  and  _198
REMARK   80  A    between atoms: _198  and  _199
REMARK   81  A    between atoms: _198  and  _201
REMARK   82  A    between atoms: _201  and  _202
REMARK   83  A    between atoms: _207  and  _208
REMARK   84  A    between atoms: _210  and  _212
REMARK   85  A    between atoms: _212  and  _213
REMARK   86  A    between atoms: _215  and  _217
REMARK   87  A    between atoms: _217  and  _218
REMARK   88  A    between atoms: _220  and  _222
REMARK   89  A    between atoms: _222  and  _223
REMARK   90  A    between atoms: _226  and  _228
REMARK   91  A    between atoms: _228  and  _229
REMARK   92  A    between atoms: _228  and  _231
REMARK   93  A    between atoms: _231  and  _232
REMARK   94  A    between atoms: _235  and  _237
REMARK   95  A    between atoms: _237  and  _238
REMARK   96  A    between atoms: _240  and  _242
REMARK   97  A    between atoms: _242  and  _243
REMARK   98  A    between atoms: _245  and  _247
REMARK   99  A    between atoms: _247  and  _248
REMARK  100  A    between atoms: _247  and  _250
REMARK  101  A    between atoms: _250  and  _251
REMARK  102  A    between atoms: _257  and  _259
REMARK  103  A    between atoms: _259  and  _260
REMARK  104  A    between atoms: _259  and  _262
REMARK  105  A    between atoms: _262  and  _263
REMARK  106  A    between atoms: _268  and  _270
REMARK  107  A    between atoms: _270  and  _271
REMARK  108  A    between atoms: _270  and  _273
REMARK  109  A    between atoms: _273  and  _274
REMARK  110  A    between atoms: _274  and  _275
REMARK  111  A    between atoms: _275  and  _276
REMARK                            x       y       z     vdW  Elec       q    Type
REMARK                         _______ _______ _______ _____ _____    ______ ____
ROOT
ATOM      1  CA  TYR A   2     -31.466   1.351  11.929  0.00  0.00    +0.153 C 
ENDROOT
BRANCH   1   4
ATOM      2  C   ALA A   1     -29.325   2.526  11.923  0.00  0.00    +0.238 C 
ATOM      3  O   ALA A   1     -29.370   2.708  13.140  0.00  0.00    -0.274 OA
ATOM      4  N   TYR A   2     -30.245   1.822  11.264  0.00  0.00    -0.297 N 
ATOM      5  H   TYR A   2     -30.095   1.602  10.259  0.00  0.00    +0.150 HD
BRANCH   2   6
ATOM      6  CA  ALA A   1     -28.182   3.122  11.103  0.00  0.00    +0.145 C 
ATOM      7  CB  ALA A   1     -28.554   4.520  10.610  0.00  0.00    +0.028 C 
BRANCH   6   8
ATOM      8  N   ALA A   1     -27.724   2.295   9.986  0.00  0.00    -0.238 NA
ATOM      9  H   ALA A   1     -28.348   2.159   9.165  0.00  0.00    +0.142 HD
ENDBRANCH   6   8
ENDBRANCH   2   6
ENDBRANCH   1   4
BRANCH   1  10
ATOM     10  C   TYR A   2     -32.109   0.103  11.312  0.00  0.00    +0.241 C 
ATOM     11  O   TYR A   2     -33.266  -0.212  11.607  0.00  0.00    -0.273 OA
ATOM     12  N   GLY A   3     -31.351  -0.623  10.496  0.00  0.00    -0.296 N 
ATOM     13  H   GLY A   3     -30.323  -0.469  10.485  0.00  0.00    +0.150 HD
BRANCH  12  14
ATOM     14  CA  GLY A   3     -31.933  -1.633   9.614  0.00  0.00    +0.163 C 
BRANCH  14  15
ATOM     15  C   GLY A   3     -31.992  -3.093  10.029  0.00  0.00    +0.229 C 
ATOM     16  O   GLY A   3     -32.525  -3.913   9.284  0.00  0.00    -0.286 OA
ENDBRANCH  14  15
ENDBRANCH  12  14
ENDBRANCH   1  10
BRANCH   1  17
ATOM     17  CB  TYR A   2     -32.500   2.491  12.017  0.00  0.00    +0.055 C 
BRANCH  17  18
ATOM     18  CG  TYR A   2     -32.901   3.124  10.691  0.00  0.00    -0.020 A 
ATOM     19  CD2 TYR A   2     -32.239   4.253  10.203  0.00  0.00    -0.001 A 
ATOM     20  CE2 TYR A   2     -32.612   4.845   8.995  0.00  0.00    +0.036 A 
ATOM     21  CZ  TYR A   2     -33.666   4.313   8.269  0.00  0.00    +0.134 A 
ATOM     22  CE1 TYR A   2     -34.346   3.199   8.736  0.00  0.00    +0.036 A 
ATOM     23  CD1 TYR A   2     -33.965   2.614   9.944  0.00  0.00    -0.001 A 
BRANCH  21  24
ATOM     24  OH  TYR A   2     -34.039   4.894   7.078  0.00  0.00    -0.506 OA
ATOM     25  HH  TYR A   2     -34.802   4.394   6.693  0.00  0.00    +0.292 HD
ENDBRANCH  21  24
ENDBRANCH  17  18
ENDBRANCH   1  17
TORSDOF 9
REMARK  Name = ../refined-set-2016/3gr2/3gr2_pocket.pdb
REMARK  111 active torsions:
REMARK  status: ('A' for Active; 'I' for Inactive)
REMARK    1  A    between atoms: _1  and  _3
REMARK    2  A    between atoms: _3  and  _4
REMARK    3  A    between atoms: _3  and  _6
REMARK    4  A    between atoms: _6  and  _7
REMARK    5  A    between atoms: _7  and  _8
REMARK    6  A    between atoms: _11  and  _13
REMARK    7  A    between atoms: _13  and  _14
REMARK    8  A    between atoms: _16  and  _18
REMARK    9  A    between atoms: _18  and  _19
REMARK   10  A    between atoms: _18  and  _21
REMARK   11  A    between atoms: _21  and  _22
REMARK   12  A    between atoms: _24  and  _26
REMARK   13  A    between atoms: _26  and  _27
REMARK   14  A    between atoms: _26  and  _29
REMARK   15  A    between atoms: _29  and  _30
REMARK   16  A    between atoms: _30  and  _31
REMARK   17  A    between atoms: _31  and  _32
REMARK   18  A    between atoms: _32  and  _33
REMARK   19  A    between atoms: _37  and  _39
REMARK   20  A    between atoms: _39  and  _40
REMARK   21  A    between atoms: _39  and  _42
REMARK   22  A    between atoms: _42  and  _43
REMARK   23  A    between atoms: _46  and  _48
REMARK   24  A    between atoms: _48  and  _49
REMARK   25  A    between atoms: _48  and  _51
REMARK   26  A    between atoms: _51  and  _52
REMARK   27  A    between atoms: _52  and  _53
REMARK   28  A    between atoms: _58  and  _60
REMARK   29  A    between atoms: _60  and  _61
REMARK   30  A    between atoms: _60  and  _63
REMARK   31  A    between atoms: _66  and  _68
REMARK   32  A    between atoms: _68  and  _69
REMARK   33  A    between atoms: _68  and  _71
REMARK   34  A    between atoms: _71  and  _72
REMARK   35  A    between atoms: _75  and  _77
REMARK   36  A    between atoms: _77  and  _78
REMARK   37  A    between atoms: _77  and  _80
REMARK   38  A    between atoms: _80  and  _81
REMARK   39  A    between atoms: _86  and  _87
REMARK   40  A    between atoms: _89  and  _91
REMARK   41  A    between atoms: _91  and  _92
REMARK   42  A    between atoms: _95  and  _97
REMARK   43  A    between atoms: _97  and  _98
REMARK   44  A    between atoms: _97  and  _100
REMARK   45  A    between atoms: _100  and  _101
REMARK   46  A    between atoms: _106  and  _108
REMARK   47  A    between atoms: _108  and  _109
REMARK   48  A    between atoms: _111  and  _113
REMARK   49  A    between atoms: _113  and  _114
REMARK   50  A    between atoms: _113  and  _116
REMARK   51  A    between atoms: _116  and  _117
REMARK   52  A    between atoms: _117  and  _118
REMARK   53  A    between atoms: _118  and  _119
REMARK   54  A    between atoms: _128  and  _130
REMARK   55  A    between atoms: _130  and  _131
REMARK   56  A    between atoms: _130  and  _133
REMARK   57  A    between atoms: _136  and  _138
REMARK   58  A    between atoms: _138  and  _139
REMARK   59  A    between atoms: _138  and  _141
REMARK   60  A    between atoms: _141  and  _142
REMARK   61  A    between atoms: _147  and  _149
REMARK   62  A    between atoms: _149  and  _150
REMARK   63  A    between atoms: _149  and  _152
REMARK   64  A    between atoms: _155  and  _157
REMARK   65  A    between atoms: _157  and  _158
REMARK   66  A    between atoms: _157  and  _160
REMARK   67  A    between atoms: _160  and  _161
REMARK   68  A    between atoms: _164  and  _165
REMARK   69  A    between atoms: _170  and  _172
REMARK   70  A    between atoms: _172  and  _173
REMARK   71  A    between atoms: _175  and  _177
REMARK   72  A    between atoms: _177  and  _178
REMARK   73  A    between atoms: _181  and  _183
REMARK   74  A    between atoms: _183  and  _184
REMARK   75  A    between atoms: _183  and  _186
REMARK   76  A    between atoms: _186  and  _187
REMARK   77  A    between atoms: _190  and  _192
REMARK   78  A    between atoms: _192  and  _193
REMARK   79  A    between atoms: _196  and  _198
REMARK   80  A    between atoms: _198  and  _199
REMARK   81  A    between atoms: _198  and  _201
REMARK   82  A    between atoms: _201  and  _202
REMARK   83  A    between atoms: _207  and  _208
REMARK   84  A    between atoms: _210  and  _212
REMARK   85  A    between atoms: _212  and  _213
REMARK   86  A    between atoms: _215  and  _217
REMARK   87  A    between atoms: _217  and  _218
REMARK   88  A    between atoms: _220  and  _222
REMARK   89  A    between atoms: _222  and  _223
REMARK   90  A    between atoms: _226  and  _228
REMARK   91  A    between atoms: _228  and  _229
REMARK   92  A    between atoms: _228  and  _231
REMARK   93  A    between atoms: _231  and  _232
REMARK   94  A    between atoms: _235  and  _237
REMARK   95  A    between atoms: _237  and  _238
REMARK   96  A    between atoms: _240  and  _242
REMARK   97  A    between atoms: _242  and  _243
REMARK   98  A    between atoms: _245  and  _247
REMARK   99  A    between atoms: _247  and  _248
REMARK  100  A    between atoms: _247  and  _250
REMARK  101  A    between atoms: _250  and  _251
REMARK  102  A    between atoms: _257  and  _259
REMARK  103  A    between atoms: _259  and  _260
REMARK  104  A    between atoms: _259  and  _262
REMARK  105  A    between atoms: _262  and  _263
REMARK  106  A    between atoms: _268  and  _270
REMARK  107  A    between atoms: _270  and  _271
REMARK  108  A    between atoms: _270  and  _273
REMARK  109  A    between atoms: _273  and  _274
REMARK  110  A    between atoms: _274  and  _275
REMARK  111  A    between atoms: _275  and  _276
REMARK                            x       y       z     vdW  Elec       q    Type
REMARK                         _______ _______ _______ _____ _____    ______ ____
ROOT
ATOM      1  C   THR A   3     -40.234   2.854  14.467  0.00  0.00    +0.243 C 
ATOM      2  O   THR A   3     -40.718   2.855  15.602  0.00  0.00    -0.273 OA
ATOM      3  N   GLY A   4     -40.914   3.257  13.396  0.00  0.00    -0.295 N 
ATOM      4  H   GLY A   4     -40.452   3.235  12.464  0.00  0.00    +0.150 HD
ENDROOT
BRANCH   3   5
ATOM      5  CA  GLY A   4     -42.297   3.731  13.497  0.00  0.00    +0.176 C 
BRANCH   5   6
ATOM      6  C   GLY A   4     -43.193   2.793  14.287  0.00  0.00    +0.243 C 
ATOM      7  O   GLY A   4     -44.085   3.236  15.013  0.00  0.00    -0.273 OA
ATOM      8  N   GLY A   5     -42.933   1.493  14.158  0.00  0.00    -0.295 N 
ATOM      9  H   GLY A   5     -42.103   1.198  13.606  0.00  0.00    +0.150 HD
BRANCH   8  10
ATOM     10  CA  GLY A   5     -43.775   0.470  14.766  0.00  0.00    +0.176 C 
BRANCH  10  11
ATOM     11  C   GLY A   5     -43.140  -0.414  15.825  0.00  0.00    +0.243 C 
ATOM     12  O   GLY A   5     -43.801  -1.307  16.344  0.00  0.00    -0.273 OA
ATOM     13  N   PHE A   6     -41.872  -0.178  16.156  0.00  0.00    -0.298 N 
ATOM     14  H   PHE A   6     -41.377   0.637  15.741  0.00  0.00    +0.150 HD
BRANCH  13  15
ATOM     15  CA  PHE A   6     -41.165  -1.051  17.097  0.00  0.00    +0.141 C 
BRANCH  15  16
ATOM     16  C   PHE A   6     -40.385  -0.265  18.146  0.00  0.00    +0.227 C 
ATOM     17  O   PHE A   6     -39.905   0.837  17.879  0.00  0.00    -0.286 OA
ENDBRANCH  15  16
BRANCH  15  18
ATOM     18  CB  PHE A   6     -40.191  -1.973  16.352  0.00  0.00    +0.054 C 
BRANCH  18  19
ATOM     19  CG  PHE A   6     -40.851  -3.083  15.566  0.00  0.00    -0.020 A 
ATOM     20  CD2 PHE A   6     -40.925  -4.373  16.087  0.00  0.00    -0.004 A 
ATOM     21  CE2 PHE A   6     -41.513  -5.411  15.355  0.00  0.00    -0.000 A 
ATOM     22  CZ  PHE A   6     -42.019  -5.162  14.084  0.00  0.00    -0.000 A 
ATOM     23  CE1 PHE A   6     -41.935  -3.881  13.547  0.00  0.00    -0.000 A 
ATOM     24  CD1 PHE A   6     -41.351  -2.851  14.288  0.00  0.00    -0.004 A 
ENDBRANCH  18  19
ENDBRANCH  15  18
ENDBRANCH  13  15
ENDBRANCH  10  11
ENDBRANCH   8  10
ENDBRANCH   5   6
ENDBRANCH   3   5
BRANCH   1  25
ATOM     25  CA  THR A   3     -38.799   2.384  14.251  0.00  0.00    +0.176 C 
BRANCH  25  27
ATOM     26  C   ALA A   2     -37.200   2.596  16.089  0.00  0.00    +0.241 C 
ATOM     27  N   THR A   3     -38.292   2.044  15.573  0.00  0.00    -0.295 N 
ATOM     28  H   THR A   3     -38.807   1.339  16.137  0.00  0.00    +0.150 HD
ATOM     29  O   ALA A   2     -36.313   3.123  15.412  0.00  0.00    -0.273 OA
BRANCH  26  30
ATOM     30  CA  ALA A   2     -37.085   2.502  17.602  0.00  0.00    +0.149 C 
ATOM     31  CB  ALA A   2     -37.767   3.702  18.260  0.00  0.00    +0.031 C 
BRANCH  30  34
ATOM     32  C   GLY A   1     -35.391   1.686  19.128  0.00  0.00    +0.240 C 
ATOM     33  O   GLY A   1     -36.232   1.144  19.846  0.00  0.00    -0.274 OA
ATOM     34  N   ALA A   2     -35.705   2.390  18.047  0.00  0.00    -0.297 N 
ATOM     35  H   ALA A   2     -34.953   2.868  17.511  0.00  0.00    +0.150 HD
BRANCH  32  36
ATOM     36  CA  GLY A   1     -33.923   1.579  19.453  0.00  0.00    +0.169 C 
BRANCH  36  37
ATOM     37  N   GLY A   1     -33.681   1.653  20.889  0.00  0.00    -0.236 NA
ATOM     38  H   GLY A   1     -34.407   1.314  21.552  0.00  0.00    +0.142 HD
ENDBRANCH  36  37
ENDBRANCH  32  36
ENDBRANCH  30  34
ENDBRANCH  26  30
ENDBRANCH  25  27
BRANCH  25  39
ATOM     39  CB  THR A   3     -38.766   1.188  13.274  0.00  0.00    +0.137 C 
ATOM     40  CG2 THR A   3     -37.339   0.697  13.049  0.00  0.00    +0.034 C 
BRANCH  39  41
ATOM     41  OG1 THR A   3     -39.566   0.118  13.794  0.00  0.00    -0.382 OA
ATOM     42  HG1 THR A   3     -39.542  -0.646  13.165  0.00  0.00    +0.210 HD
ENDBRANCH  39  41
ENDBRANCH  25  39
ENDBRANCH   1  25
TORSDOF 16
REMARK  Name = ../refined-set-2016/3gr2/3gr2_pocket.pdb
REMARK  111 active torsions:
REMARK  status: ('A' for Active; 'I' for Inactive)
REMARK    1  A    between atoms: _1  and  _3
REMARK    2  A    between atoms: _3  and  _4
REMARK    3  A    between atoms: _3  and  _6
REMARK    4  A    between atoms: _6  and  _7
REMARK    5  A    between atoms: _7  and  _8
REMARK    6  A    between atoms: _11  and  _13
REMARK    7  A    between atoms: _13  and  _14
REMARK    8  A    between atoms: _16  and  _18
REMARK    9  A    between atoms: _18  and  _19
REMARK   10  A    between atoms: _18  and  _21
REMARK   11  A    between atoms: _21  and  _22
REMARK   12  A    between atoms: _24  and  _26
REMARK   13  A    between atoms: _26  and  _27
REMARK   14  A    between atoms: _26  and  _29
REMARK   15  A    between atoms: _29  and  _30
REMARK   16  A    between atoms: _30  and  _31
REMARK   17  A    between atoms: _31  and  _32
REMARK   18  A    between atoms: _32  and  _33
REMARK   19  A    between atoms: _37  and  _39
REMARK   20  A    between atoms: _39  and  _40
REMARK   21  A    between atoms: _39  and  _42
REMARK   22  A    between atoms: _42  and  _43
REMARK   23  A    between atoms: _46  and  _48
REMARK   24  A    between atoms: _48  and  _49
REMARK   25  A    between atoms: _48  and  _51
REMARK   26  A    between atoms: _51  and  _52
REMARK   27  A    between atoms: _52  and  _53
REMARK   28  A    between atoms: _58  and  _60
REMARK   29  A    between atoms: _60  and  _61
REMARK   30  A    between atoms: _60  and  _63
REMARK   31  A    between atoms: _66  and  _68
REMARK   32  A    between atoms: _68  and  _69
REMARK   33  A    between atoms: _68  and  _71
REMARK   34  A    between atoms: _71  and  _72
REMARK   35  A    between atoms: _75  and  _77
REMARK   36  A    between atoms: _77  and  _78
REMARK   37  A    between atoms: _77  and  _80
REMARK   38  A    between atoms: _80  and  _81
REMARK   39  A    between atoms: _86  and  _87
REMARK   40  A    between atoms: _89  and  _91
REMARK   41  A    between atoms: _91  and  _92
REMARK   42  A    between atoms: _95  and  _97
REMARK   43  A    between atoms: _97  and  _98
REMARK   44  A    between atoms: _97  and  _100
REMARK   45  A    between atoms: _100  and  _101
REMARK   46  A    between atoms: _106  and  _108
REMARK   47  A    between atoms: _108  and  _109
REMARK   48  A    between atoms: _111  and  _113
REMARK   49  A    between atoms: _113  and  _114
REMARK   50  A    between atoms: _113  and  _116
REMARK   51  A    between atoms: _116  and  _117
REMARK   52  A    between atoms: _117  and  _118
REMARK   53  A    between atoms: _118  and  _119
REMARK   54  A    between atoms: _128  and  _130
REMARK   55  A    between atoms: _130  and  _131
REMARK   56  A    between atoms: _130  and  _133
REMARK   57  A    between atoms: _136  and  _138
REMARK   58  A    between atoms: _138  and  _139
REMARK   59  A    between atoms: _138  and  _141
REMARK   60  A    between atoms: _141  and  _142
REMARK   61  A    between atoms: _147  and  _149
REMARK   62  A    between atoms: _149  and  _150
REMARK   63  A    between atoms: _149  and  _152
REMARK   64  A    between atoms: _155  and  _157
REMARK   65  A    between atoms: _157  and  _158
REMARK   66  A    between atoms: _157  and  _160
REMARK   67  A    between atoms: _160  and  _161
REMARK   68  A    between atoms: _164  and  _165
REMARK   69  A    between atoms: _170  and  _172
REMARK   70  A    between atoms: _172  and  _173
REMARK   71  A    between atoms: _175  and  _177
REMARK   72  A    between atoms: _177  and  _178
REMARK   73  A    between atoms: _181  and  _183
REMARK   74  A    between atoms: _183  and  _184
REMARK   75  A    between atoms: _183  and  _186
REMARK   76  A    between atoms: _186  and  _187
REMARK   77  A    between atoms: _190  and  _192
REMARK   78  A    between atoms: _192  and  _193
REMARK   79  A    between atoms: _196  and  _198
REMARK   80  A    between atoms: _198  and  _199
REMARK   81  A    between atoms: _198  and  _201
REMARK   82  A    between atoms: _201  and  _202
REMARK   83  A    between atoms: _207  and  _208
REMARK   84  A    between atoms: _210  and  _212
REMARK   85  A    between atoms: _212  and  _213
REMARK   86  A    between atoms: _215  and  _217
REMARK   87  A    between atoms: _217  and  _218
REMARK   88  A    between atoms: _220  and  _222
REMARK   89  A    between atoms: _222  and  _223
REMARK   90  A    between atoms: _226  and  _228
REMARK   91  A    between atoms: _228  and  _229
REMARK   92  A    between atoms: _228  and  _231
REMARK   93  A    between atoms: _231  and  _232
REMARK   94  A    between atoms: _235  and  _237
REMARK   95  A    between atoms: _237  and  _238
REMARK   96  A    between atoms: _240  and  _242
REMARK   97  A    between atoms: _242  and  _243
REMARK   98  A    between atoms: _245  and  _247
REMARK   99  A    between atoms: _247  and  _248
REMARK  100  A    between atoms: _247  and  _250
REMARK  101  A    between atoms: _250  and  _251
REMARK  102  A    between atoms: _257  and  _259
REMARK  103  A    between atoms: _259  and  _260
REMARK  104  A    between atoms: _259  and  _262
REMARK  105  A    between atoms: _262  and  _263
REMARK  106  A    between atoms: _268  and  _270
REMARK  107  A    between atoms: _270  and  _271
REMARK  108  A    between atoms: _270  and  _273
REMARK  109  A    between atoms: _273  and  _274
REMARK  110  A    between atoms: _274  and  _275
REMARK  111  A    between atoms: _275  and  _276
REMARK                            x       y       z     vdW  Elec       q    Type
REMARK                         _______ _______ _______ _____ _____    ______ ____
ROOT
ATOM      1  CB  ASN A   1     -42.549   3.391  18.631  0.00  0.00    +0.110 C 
ENDROOT
BRANCH   1   2
ATOM      2  CG  ASN A   1     -41.404   4.342  18.955  0.00  0.00    +0.221 C 
ATOM      3  OD1 ASN A   1     -40.710   4.192  19.964  0.00  0.00    -0.275 OA
ATOM      4  ND2 ASN A   1     -41.198   5.328  18.088  0.00  0.00    -0.329 N 
ATOM      5 HD21 ASN A   1     -40.428   6.009  18.248  0.00  0.00    +0.145 HD
ATOM      6 HD22 ASN A   1     -41.806   5.419  17.249  0.00  0.00    +0.145 HD
ENDBRANCH   1   2
BRANCH   1   7
ATOM      7  CA  ASN A   1     -42.820   2.382  19.752  0.00  0.00    +0.142 C 
BRANCH   7   8
ATOM      8  N   ASN A   1     -43.708   1.323  19.288  0.00  0.00    -0.239 NA
ATOM      9  H   ASN A   1     -44.292   1.487  18.443  0.00  0.00    +0.142 HD
ENDBRANCH   7   8
BRANCH   7  10
ATOM     10  C   ASN A   1     -43.420   3.075  20.976  0.00  0.00    +0.225 C 
ATOM     11  O   ASN A   1     -44.310   3.922  20.853  0.00  0.00    -0.287 OA
ENDBRANCH   7  10
ENDBRANCH   1   7
TORSDOF 4
REMARK  Name = ../refined-set-2016/3gr2/3gr2_pocket.pdb
REMARK  111 active torsions:
REMARK  status: ('A' for Active; 'I' for Inactive)
REMARK    1  A    between atoms: _1  and  _3
REMARK    2  A    between atoms: _3  and  _4
REMARK    3  A    between atoms: _3  and  _6
REMARK    4  A    between atoms: _6  and  _7
REMARK    5  A    between atoms: _7  and  _8
REMARK    6  A    between atoms: _11  and  _13
REMARK    7  A    between atoms: _13  and  _14
REMARK    8  A    between atoms: _16  and  _18
REMARK    9  A    between atoms: _18  and  _19
REMARK   10  A    between atoms: _18  and  _21
REMARK   11  A    between atoms: _21  and  _22
REMARK   12  A    between atoms: _24  and  _26
REMARK   13  A    between atoms: _26  and  _27
REMARK   14  A    between atoms: _26  and  _29
REMARK   15  A    between atoms: _29  and  _30
REMARK   16  A    between atoms: _30  and  _31
REMARK   17  A    between atoms: _31  and  _32
REMARK   18  A    between atoms: _32  and  _33
REMARK   19  A    between atoms: _37  and  _39
REMARK   20  A    between atoms: _39  and  _40
REMARK   21  A    between atoms: _39  and  _42
REMARK   22  A    between atoms: _42  and  _43
REMARK   23  A    between atoms: _46  and  _48
REMARK   24  A    between atoms: _48  and  _49
REMARK   25  A    between atoms: _48  and  _51
REMARK   26  A    between atoms: _51  and  _52
REMARK   27  A    between atoms: _52  and  _53
REMARK   28  A    between atoms: _58  and  _60
REMARK   29  A    between atoms: _60  and  _61
REMARK   30  A    between atoms: _60  and  _63
REMARK   31  A    between atoms: _66  and  _68
REMARK   32  A    between atoms: _68  and  _69
REMARK   33  A    between atoms: _68  and  _71
REMARK   34  A    between atoms: _71  and  _72
REMARK   35  A    between atoms: _75  and  _77
REMARK   36  A    between atoms: _77  and  _78
REMARK   37  A    between atoms: _77  and  _80
REMARK   38  A    between atoms: _80  and  _81
REMARK   39  A    between atoms: _86  and  _87
REMARK   40  A    between atoms: _89  and  _91
REMARK   41  A    between atoms: _91  and  _92
REMARK   42  A    between atoms: _95  and  _97
REMARK   43  A    between atoms: _97  and  _98
REMARK   44  A    between atoms: _97  and  _100
REMARK   45  A    between atoms: _100  and  _101
REMARK   46  A    between atoms: _106  and  _108
REMARK   47  A    between atoms: _108  and  _109
REMARK   48  A    between atoms: _111  and  _113
REMARK   49  A    between atoms: _113  and  _114
REMARK   50  A    between atoms: _113  and  _116
REMARK   51  A    between atoms: _116  and  _117
REMARK   52  A    between atoms: _117  and  _118
REMARK   53  A    between atoms: _118  and  _119
REMARK   54  A    between atoms: _128  and  _130
REMARK   55  A    between atoms: _130  and  _131
REMARK   56  A    between atoms: _130  and  _133
REMARK   57  A    between atoms: _136  and  _138
REMARK   58  A    between atoms: _138  and  _139
REMARK   59  A    between atoms: _138  and  _141
REMARK   60  A    between atoms: _141  and  _142
REMARK   61  A    between atoms: _147  and  _149
REMARK   62  A    between atoms: _149  and  _150
REMARK   63  A    between atoms: _149  and  _152
REMARK   64  A    between atoms: _155  and  _157
REMARK   65  A    between atoms: _157  and  _158
REMARK   66  A    between atoms: _157  and  _160
REMARK   67  A    between atoms: _160  and  _161
REMARK   68  A    between atoms: _164  and  _165
REMARK   69  A    between atoms: _170  and  _172
REMARK   70  A    between atoms: _172  and  _173
REMARK   71  A    between atoms: _175  and  _177
REMARK   72  A    between atoms: _177  and  _178
REMARK   73  A    between atoms: _181  and  _183
REMARK   74  A    between atoms: _183  and  _184
REMARK   75  A    between atoms: _183  and  _186
REMARK   76  A    between atoms: _186  and  _187
REMARK   77  A    between atoms: _190  and  _192
REMARK   78  A    between atoms: _192  and  _193
REMARK   79  A    between atoms: _196  and  _198
REMARK   80  A    between atoms: _198  and  _199
REMARK   81  A    between atoms: _198  and  _201
REMARK   82  A    between atoms: _201  and  _202
REMARK   83  A    between atoms: _207  and  _208
REMARK   84  A    between atoms: _210  and  _212
REMARK   85  A    between atoms: _212  and  _213
REMARK   86  A    between atoms: _215  and  _217
REMARK   87  A    between atoms: _217  and  _218
REMARK   88  A    between atoms: _220  and  _222
REMARK   89  A    between atoms: _222  and  _223
REMARK   90  A    between atoms: _226  and  _228
REMARK   91  A    between atoms: _228  and  _229
REMARK   92  A    between atoms: _228  and  _231
REMARK   93  A    between atoms: _231  and  _232
REMARK   94  A    between atoms: _235  and  _237
REMARK   95  A    between atoms: _237  and  _238
REMARK   96  A    between atoms: _240  and  _242
REMARK   97  A    between atoms: _242  and  _243
REMARK   98  A    between atoms: _245  and  _247
REMARK   99  A    between atoms: _247  and  _248
REMARK  100  A    between atoms: _247  and  _250
REMARK  101  A    between atoms: _250  and  _251
REMARK  102  A    between atoms: _257  and  _259
REMARK  103  A    between atoms: _259  and  _260
REMARK  104  A    between atoms: _259  and  _262
REMARK  105  A    between atoms: _262  and  _263
REMARK  106  A    between atoms: _268  and  _270
REMARK  107  A    between atoms: _270  and  _271
REMARK  108  A    between atoms: _270  and  _273
REMARK  109  A    between atoms: _273  and  _274
REMARK  110  A    between atoms: _274  and  _275
REMARK  111  A    between atoms: _275  and  _276
REMARK                            x       y       z     vdW  Elec       q    Type
REMARK                         _______ _______ _______ _____ _____    ______ ____
ROOT
ATOM      1  NE  ARG A   1     -38.572   2.085  24.029  0.00  0.00    -0.265 N 
ATOM      2  HE  ARG A   1     -39.531   2.369  24.315  0.00  0.00    +0.259 HD
ATOM      3  CZ  ARG A   1     -38.198   2.321  22.777  0.00  0.00    +0.342 C 
ATOM      4  NH2 ARG A   1     -36.985   1.974  22.365  0.00  0.00    -0.292 N 
ATOM      5 HH21 ARG A   1     -36.324   1.515  23.024  0.00  0.00    +0.255 HD
ATOM      6 HH22 ARG A   1     -36.696   2.161  21.384  0.00  0.00    +0.255 HD
ATOM      7  NH1 ARG A   1     -39.036   2.904  21.932  0.00  0.00    -0.292 N 
ATOM      8 HH11 ARG A   1     -39.988   3.177  22.249  0.00  0.00    +0.255 HD
ATOM      9 HH12 ARG A   1     -38.742   3.088  20.952  0.00  0.00    +0.255 HD
ENDROOT
BRANCH   1  10
ATOM     10  CD  ARG A   1     -37.718   1.451  25.026  0.00  0.00    +0.174 C 
BRANCH  10  11
ATOM     11  CG  ARG A   1     -38.386   1.389  26.366  0.00  0.00    +0.045 C 
BRANCH  11  12
ATOM     12  CB  ARG A   1     -37.381   1.098  27.450  0.00  0.00    +0.029 C 
BRANCH  12  13
ATOM     13  CA  ARG A   1     -38.005   0.884  28.831  0.00  0.00    +0.133 C 
BRANCH  13  14
ATOM     14  N   ARG A   1     -38.958   1.957  29.131  0.00  0.00    -0.239 NA
ATOM     15  H   ARG A   1     -39.083   2.718  28.433  0.00  0.00    +0.142 HD
ENDBRANCH  13  14
BRANCH  13  16
ATOM     16  C   ARG A   1     -36.903   0.819  29.879  0.00  0.00    +0.224 C 
ATOM     17  O   ARG A   1     -36.663  -0.232  30.477  0.00  0.00    -0.287 OA
ENDBRANCH  13  16
ENDBRANCH  12  13
ENDBRANCH  11  12
ENDBRANCH  10  11
ENDBRANCH   1  10
TORSDOF 6
REMARK  Name = ../refined-set-2016/3gr2/3gr2_pocket.pdb
REMARK  111 active torsions:
REMARK  status: ('A' for Active; 'I' for Inactive)
REMARK    1  A    between atoms: _1  and  _3
REMARK    2  A    between atoms: _3  and  _4
REMARK    3  A    between atoms: _3  and  _6
REMARK    4  A    between atoms: _6  and  _7
REMARK    5  A    between atoms: _7  and  _8
REMARK    6  A    between atoms: _11  and  _13
REMARK    7  A    between atoms: _13  and  _14
REMARK    8  A    between atoms: _16  and  _18
REMARK    9  A    between atoms: _18  and  _19
REMARK   10  A    between atoms: _18  and  _21
REMARK   11  A    between atoms: _21  and  _22
REMARK   12  A    between atoms: _24  and  _26
REMARK   13  A    between atoms: _26  and  _27
REMARK   14  A    between atoms: _26  and  _29
REMARK   15  A    between atoms: _29  and  _30
REMARK   16  A    between atoms: _30  and  _31
REMARK   17  A    between atoms: _31  and  _32
REMARK   18  A    between atoms: _32  and  _33
REMARK   19  A    between atoms: _37  and  _39
REMARK   20  A    between atoms: _39  and  _40
REMARK   21  A    between atoms: _39  and  _42
REMARK   22  A    between atoms: _42  and  _43
REMARK   23  A    between atoms: _46  and  _48
REMARK   24  A    between atoms: _48  and  _49
REMARK   25  A    between atoms: _48  and  _51
REMARK   26  A    between atoms: _51  and  _52
REMARK   27  A    between atoms: _52  and  _53
REMARK   28  A    between atoms: _58  and  _60
REMARK   29  A    between atoms: _60  and  _61
REMARK   30  A    between atoms: _60  and  _63
REMARK   31  A    between atoms: _66  and  _68
REMARK   32  A    between atoms: _68  and  _69
REMARK   33  A    between atoms: _68  and  _71
REMARK   34  A    between atoms: _71  and  _72
REMARK   35  A    between atoms: _75  and  _77
REMARK   36  A    between atoms: _77  and  _78
REMARK   37  A    between atoms: _77  and  _80
REMARK   38  A    between atoms: _80  and  _81
REMARK   39  A    between atoms: _86  and  _87
REMARK   40  A    between atoms: _89  and  _91
REMARK   41  A    between atoms: _91  and  _92
REMARK   42  A    between atoms: _95  and  _97
REMARK   43  A    between atoms: _97  and  _98
REMARK   44  A    between atoms: _97  and  _100
REMARK   45  A    between atoms: _100  and  _101
REMARK   46  A    between atoms: _106  and  _108
REMARK   47  A    between atoms: _108  and  _109
REMARK   48  A    between atoms: _111  and  _113
REMARK   49  A    between atoms: _113  and  _114
REMARK   50  A    between atoms: _113  and  _116
REMARK   51  A    between atoms: _116  and  _117
REMARK   52  A    between atoms: _117  and  _118
REMARK   53  A    between atoms: _118  and  _119
REMARK   54  A    between atoms: _128  and  _130
REMARK   55  A    between atoms: _130  and  _131
REMARK   56  A    between atoms: _130  and  _133
REMARK   57  A    between atoms: _136  and  _138
REMARK   58  A    between atoms: _138  and  _139
REMARK   59  A    between atoms: _138  and  _141
REMARK   60  A    between atoms: _141  and  _142
REMARK   61  A    between atoms: _147  and  _149
REMARK   62  A    between atoms: _149  and  _150
REMARK   63  A    between atoms: _149  and  _152
REMARK   64  A    between atoms: _155  and  _157
REMARK   65  A    between atoms: _157  and  _158
REMARK   66  A    between atoms: _157  and  _160
REMARK   67  A    between atoms: _160  and  _161
REMARK   68  A    between atoms: _164  and  _165
REMARK   69  A    between atoms: _170  and  _172
REMARK   70  A    between atoms: _172  and  _173
REMARK   71  A    between atoms: _175  and  _177
REMARK   72  A    between atoms: _177  and  _178
REMARK   73  A    between atoms: _181  and  _183
REMARK   74  A    between atoms: _183  and  _184
REMARK   75  A    between atoms: _183  and  _186
REMARK   76  A    between atoms: _186  and  _187
REMARK   77  A    between atoms: _190  and  _192
REMARK   78  A    between atoms: _192  and  _193
REMARK   79  A    between atoms: _196  and  _198
REMARK   80  A    between atoms: _198  and  _199
REMARK   81  A    between atoms: _198  and  _201
REMARK   82  A    between atoms: _201  and  _202
REMARK   83  A    between atoms: _207  and  _208
REMARK   84  A    between atoms: _210  and  _212
REMARK   85  A    between atoms: _212  and  _213
REMARK   86  A    between atoms: _215  and  _217
REMARK   87  A    between atoms: _217  and  _218
REMARK   88  A    between atoms: _220  and  _222
REMARK   89  A    between atoms: _222  and  _223
REMARK   90  A    between atoms: _226  and  _228
REMARK   91  A    between atoms: _228  and  _229
REMARK   92  A    between atoms: _228  and  _231
REMARK   93  A    between atoms: _231  and  _232
REMARK   94  A    between atoms: _235  and  _237
REMARK   95  A    between atoms: _237  and  _238
REMARK   96  A    between atoms: _240  and  _242
REMARK   97  A    between atoms: _242  and  _243
REMARK   98  A    between atoms: _245  and  _247
REMARK   99  A    between atoms: _247  and  _248
REMARK  100  A    between atoms: _247  and  _250
REMARK  101  A    between atoms: _250  and  _251
REMARK  102  A    between atoms: _257  and  _259
REMARK  103  A    between atoms: _259  and  _260
REMARK  104  A    between atoms: _259  and  _262
REMARK  105  A    between atoms: _262  and  _263
REMARK  106  A    between atoms: _268  and  _270
REMARK  107  A    between atoms: _270  and  _271
REMARK  108  A    between atoms: _270  and  _273
REMARK  109  A    between atoms: _273  and  _274
REMARK  110  A    between atoms: _274  and  _275
REMARK  111  A    between atoms: _275  and  _276
REMARK                            x       y       z     vdW  Elec       q    Type
REMARK                         _______ _______ _______ _____ _____    ______ ____
ROOT
ATOM      1  O   HOH     1     -31.694   8.519   8.311  0.00  0.00    +0.000 OA
ENDROOT
TORSDOF 0
REMARK  Name = ../refined-set-2016/3gr2/3gr2_pocket.pdb
REMARK  111 active torsions:
REMARK  status: ('A' for Active; 'I' for Inactive)
REMARK    1  A    between atoms: _1  and  _3
REMARK    2  A    between atoms: _3  and  _4
REMARK    3  A    between atoms: _3  and  _6
REMARK    4  A    between atoms: _6  and  _7
REMARK    5  A    between atoms: _7  and  _8
REMARK    6  A    between atoms: _11  and  _13
REMARK    7  A    between atoms: _13  and  _14
REMARK    8  A    between atoms: _16  and  _18
REMARK    9  A    between atoms: _18  and  _19
REMARK   10  A    between atoms: _18  and  _21
REMARK   11  A    between atoms: _21  and  _22
REMARK   12  A    between atoms: _24  and  _26
REMARK   13  A    between atoms: _26  and  _27
REMARK   14  A    between atoms: _26  and  _29
REMARK   15  A    between atoms: _29  and  _30
REMARK   16  A    between atoms: _30  and  _31
REMARK   17  A    between atoms: _31  and  _32
REMARK   18  A    between atoms: _32  and  _33
REMARK   19  A    between atoms: _37  and  _39
REMARK   20  A    between atoms: _39  and  _40
REMARK   21  A    between atoms: _39  and  _42
REMARK   22  A    between atoms: _42  and  _43
REMARK   23  A    between atoms: _46  and  _48
REMARK   24  A    between atoms: _48  and  _49
REMARK   25  A    between atoms: _48  and  _51
REMARK   26  A    between atoms: _51  and  _52
REMARK   27  A    between atoms: _52  and  _53
REMARK   28  A    between atoms: _58  and  _60
REMARK   29  A    between atoms: _60  and  _61
REMARK   30  A    between atoms: _60  and  _63
REMARK   31  A    between atoms: _66  and  _68
REMARK   32  A    between atoms: _68  and  _69
REMARK   33  A    between atoms: _68  and  _71
REMARK   34  A    between atoms: _71  and  _72
REMARK   35  A    between atoms: _75  and  _77
REMARK   36  A    between atoms: _77  and  _78
REMARK   37  A    between atoms: _77  and  _80
REMARK   38  A    between atoms: _80  and  _81
REMARK   39  A    between atoms: _86  and  _87
REMARK   40  A    between atoms: _89  and  _91
REMARK   41  A    between atoms: _91  and  _92
REMARK   42  A    between atoms: _95  and  _97
REMARK   43  A    between atoms: _97  and  _98
REMARK   44  A    between atoms: _97  and  _100
REMARK   45  A    between atoms: _100  and  _101
REMARK   46  A    between atoms: _106  and  _108
REMARK   47  A    between atoms: _108  and  _109
REMARK   48  A    between atoms: _111  and  _113
REMARK   49  A    between atoms: _113  and  _114
REMARK   50  A    between atoms: _113  and  _116
REMARK   51  A    between atoms: _116  and  _117
REMARK   52  A    between atoms: _117  and  _118
REMARK   53  A    between atoms: _118  and  _119
REMARK   54  A    between atoms: _128  and  _130
REMARK   55  A    between atoms: _130  and  _131
REMARK   56  A    between atoms: _130  and  _133
REMARK   57  A    between atoms: _136  and  _138
REMARK   58  A    between atoms: _138  and  _139
REMARK   59  A    between atoms: _138  and  _141
REMARK   60  A    between atoms: _141  and  _142
REMARK   61  A    between atoms: _147  and  _149
REMARK   62  A    between atoms: _149  and  _150
REMARK   63  A    between atoms: _149  and  _152
REMARK   64  A    between atoms: _155  and  _157
REMARK   65  A    between atoms: _157  and  _158
REMARK   66  A    between atoms: _157  and  _160
REMARK   67  A    between atoms: _160  and  _161
REMARK   68  A    between atoms: _164  and  _165
REMARK   69  A    between atoms: _170  and  _172
REMARK   70  A    between atoms: _172  and  _173
REMARK   71  A    between atoms: _175  and  _177
REMARK   72  A    between atoms: _177  and  _178
REMARK   73  A    between atoms: _181  and  _183
REMARK   74  A    between atoms: _183  and  _184
REMARK   75  A    between atoms: _183  and  _186
REMARK   76  A    between atoms: _186  and  _187
REMARK   77  A    between atoms: _190  and  _192
REMARK   78  A    between atoms: _192  and  _193
REMARK   79  A    between atoms: _196  and  _198
REMARK   80  A    between atoms: _198  and  _199
REMARK   81  A    between atoms: _198  and  _201
REMARK   82  A    between atoms: _201  and  _202
REMARK   83  A    between atoms: _207  and  _208
REMARK   84  A    between atoms: _210  and  _212
REMARK   85  A    between atoms: _212  and  _213
REMARK   86  A    between atoms: _215  and  _217
REMARK   87  A    between atoms: _217  and  _218
REMARK   88  A    between atoms: _220  and  _222
REMARK   89  A    between atoms: _222  and  _223
REMARK   90  A    between atoms: _226  and  _228
REMARK   91  A    between atoms: _228  and  _229
REMARK   92  A    between atoms: _228  and  _231
REMARK   93  A    between atoms: _231  and  _232
REMARK   94  A    between atoms: _235  and  _237
REMARK   95  A    between atoms: _237  and  _238
REMARK   96  A    between atoms: _240  and  _242
REMARK   97  A    between atoms: _242  and  _243
REMARK   98  A    between atoms: _245  and  _247
REMARK   99  A    between atoms: _247  and  _248
REMARK  100  A    between atoms: _247  and  _250
REMARK  101  A    between atoms: _250  and  _251
REMARK  102  A    between atoms: _257  and  _259
REMARK  103  A    between atoms: _259  and  _260
REMARK  104  A    between atoms: _259  and  _262
REMARK  105  A    between atoms: _262  and  _263
REMARK  106  A    between atoms: _268  and  _270
REMARK  107  A    between atoms: _270  and  _271
REMARK  108  A    between atoms: _270  and  _273
REMARK  109  A    between atoms: _273  and  _274
REMARK  110  A    between atoms: _274  and  _275
REMARK  111  A    between atoms: _275  and  _276
REMARK                            x       y       z     vdW  Elec       q    Type
REMARK                         _______ _______ _______ _____ _____    ______ ____
ROOT
ATOM      1  O   HOH     1     -43.685   1.666   6.029  0.00  0.00    +0.000 OA
ENDROOT
TORSDOF 0
REMARK  Name = ../refined-set-2016/3gr2/3gr2_pocket.pdb
REMARK  111 active torsions:
REMARK  status: ('A' for Active; 'I' for Inactive)
REMARK    1  A    between atoms: _1  and  _3
REMARK    2  A    between atoms: _3  and  _4
REMARK    3  A    between atoms: _3  and  _6
REMARK    4  A    between atoms: _6  and  _7
REMARK    5  A    between atoms: _7  and  _8
REMARK    6  A    between atoms: _11  and  _13
REMARK    7  A    between atoms: _13  and  _14
REMARK    8  A    between atoms: _16  and  _18
REMARK    9  A    between atoms: _18  and  _19
REMARK   10  A    between atoms: _18  and  _21
REMARK   11  A    between atoms: _21  and  _22
REMARK   12  A    between atoms: _24  and  _26
REMARK   13  A    between atoms: _26  and  _27
REMARK   14  A    between atoms: _26  and  _29
REMARK   15  A    between atoms: _29  and  _30
REMARK   16  A    between atoms: _30  and  _31
REMARK   17  A    between atoms: _31  and  _32
REMARK   18  A    between atoms: _32  and  _33
REMARK   19  A    between atoms: _37  and  _39
REMARK   20  A    between atoms: _39  and  _40
REMARK   21  A    between atoms: _39  and  _42
REMARK   22  A    between atoms: _42  and  _43
REMARK   23  A    between atoms: _46  and  _48
REMARK   24  A    between atoms: _48  and  _49
REMARK   25  A    between atoms: _48  and  _51
REMARK   26  A    between atoms: _51  and  _52
REMARK   27  A    between atoms: _52  and  _53
REMARK   28  A    between atoms: _58  and  _60
REMARK   29  A    between atoms: _60  and  _61
REMARK   30  A    between atoms: _60  and  _63
REMARK   31  A    between atoms: _66  and  _68
REMARK   32  A    between atoms: _68  and  _69
REMARK   33  A    between atoms: _68  and  _71
REMARK   34  A    between atoms: _71  and  _72
REMARK   35  A    between atoms: _75  and  _77
REMARK   36  A    between atoms: _77  and  _78
REMARK   37  A    between atoms: _77  and  _80
REMARK   38  A    between atoms: _80  and  _81
REMARK   39  A    between atoms: _86  and  _87
REMARK   40  A    between atoms: _89  and  _91
REMARK   41  A    between atoms: _91  and  _92
REMARK   42  A    between atoms: _95  and  _97
REMARK   43  A    between atoms: _97  and  _98
REMARK   44  A    between atoms: _97  and  _100
REMARK   45  A    between atoms: _100  and  _101
REMARK   46  A    between atoms: _106  and  _108
REMARK   47  A    between atoms: _108  and  _109
REMARK   48  A    between atoms: _111  and  _113
REMARK   49  A    between atoms: _113  and  _114
REMARK   50  A    between atoms: _113  and  _116
REMARK   51  A    between atoms: _116  and  _117
REMARK   52  A    between atoms: _117  and  _118
REMARK   53  A    between atoms: _118  and  _119
REMARK   54  A    between atoms: _128  and  _130
REMARK   55  A    between atoms: _130  and  _131
REMARK   56  A    between atoms: _130  and  _133
REMARK   57  A    between atoms: _136  and  _138
REMARK   58  A    between atoms: _138  and  _139
REMARK   59  A    between atoms: _138  and  _141
REMARK   60  A    between atoms: _141  and  _142
REMARK   61  A    between atoms: _147  and  _149
REMARK   62  A    between atoms: _149  and  _150
REMARK   63  A    between atoms: _149  and  _152
REMARK   64  A    between atoms: _155  and  _157
REMARK   65  A    between atoms: _157  and  _158
REMARK   66  A    between atoms: _157  and  _160
REMARK   67  A    between atoms: _160  and  _161
REMARK   68  A    between atoms: _164  and  _165
REMARK   69  A    between atoms: _170  and  _172
REMARK   70  A    between atoms: _172  and  _173
REMARK   71  A    between atoms: _175  and  _177
REMARK   72  A    between atoms: _177  and  _178
REMARK   73  A    between atoms: _181  and  _183
REMARK   74  A    between atoms: _183  and  _184
REMARK   75  A    between atoms: _183  and  _186
REMARK   76  A    between atoms: _186  and  _187
REMARK   77  A    between atoms: _190  and  _192
REMARK   78  A    between atoms: _192  and  _193
REMARK   79  A    between atoms: _196  and  _198
REMARK   80  A    between atoms: _198  and  _199
REMARK   81  A    between atoms: _198  and  _201
REMARK   82  A    between atoms: _201  and  _202
REMARK   83  A    between atoms: _207  and  _208
REMARK   84  A    between atoms: _210  and  _212
REMARK   85  A    between atoms: _212  and  _213
REMARK   86  A    between atoms: _215  and  _217
REMARK   87  A    between atoms: _217  and  _218
REMARK   88  A    between atoms: _220  and  _222
REMARK   89  A    between atoms: _222  and  _223
REMARK   90  A    between atoms: _226  and  _228
REMARK   91  A    between atoms: _228  and  _229
REMARK   92  A    between atoms: _228  and  _231
REMARK   93  A    between atoms: _231  and  _232
REMARK   94  A    between atoms: _235  and  _237
REMARK   95  A    between atoms: _237  and  _238
REMARK   96  A    between atoms: _240  and  _242
REMARK   97  A    between atoms: _242  and  _243
REMARK   98  A    between atoms: _245  and  _247
REMARK   99  A    between atoms: _247  and  _248
REMARK  100  A    between atoms: _247  and  _250
REMARK  101  A    between atoms: _250  and  _251
REMARK  102  A    between atoms: _257  and  _259
REMARK  103  A    between atoms: _259  and  _260
REMARK  104  A    between atoms: _259  and  _262
REMARK  105  A    between atoms: _262  and  _263
REMARK  106  A    between atoms: _268  and  _270
REMARK  107  A    between atoms: _270  and  _271
REMARK  108  A    between atoms: _270  and  _273
REMARK  109  A    between atoms: _273  and  _274
REMARK  110  A    between atoms: _274  and  _275
REMARK  111  A    between atoms: _275  and  _276
REMARK                            x       y       z     vdW  Elec       q    Type
REMARK                         _______ _______ _______ _____ _____    ______ ____
ROOT
ATOM      1  O   HOH     1     -36.903   4.800   6.658  0.00  0.00    +0.000 OA
ENDROOT
TORSDOF 0
REMARK  Name = ../refined-set-2016/3gr2/3gr2_pocket.pdb
REMARK  111 active torsions:
REMARK  status: ('A' for Active; 'I' for Inactive)
REMARK    1  A    between atoms: _1  and  _3
REMARK    2  A    between atoms: _3  and  _4
REMARK    3  A    between atoms: _3  and  _6
REMARK    4  A    between atoms: _6  and  _7
REMARK    5  A    between atoms: _7  and  _8
REMARK    6  A    between atoms: _11  and  _13
REMARK    7  A    between atoms: _13  and  _14
REMARK    8  A    between atoms: _16  and  _18
REMARK    9  A    between atoms: _18  and  _19
REMARK   10  A    between atoms: _18  and  _21
REMARK   11  A    between atoms: _21  and  _22
REMARK   12  A    between atoms: _24  and  _26
REMARK   13  A    between atoms: _26  and  _27
REMARK   14  A    between atoms: _26  and  _29
REMARK   15  A    between atoms: _29  and  _30
REMARK   16  A    between atoms: _30  and  _31
REMARK   17  A    between atoms: _31  and  _32
REMARK   18  A    between atoms: _32  and  _33
REMARK   19  A    between atoms: _37  and  _39
REMARK   20  A    between atoms: _39  and  _40
REMARK   21  A    between atoms: _39  and  _42
REMARK   22  A    between atoms: _42  and  _43
REMARK   23  A    between atoms: _46  and  _48
REMARK   24  A    between atoms: _48  and  _49
REMARK   25  A    between atoms: _48  and  _51
REMARK   26  A    between atoms: _51  and  _52
REMARK   27  A    between atoms: _52  and  _53
REMARK   28  A    between atoms: _58  and  _60
REMARK   29  A    between atoms: _60  and  _61
REMARK   30  A    between atoms: _60  and  _63
REMARK   31  A    between atoms: _66  and  _68
REMARK   32  A    between atoms: _68  and  _69
REMARK   33  A    between atoms: _68  and  _71
REMARK   34  A    between atoms: _71  and  _72
REMARK   35  A    between atoms: _75  and  _77
REMARK   36  A    between atoms: _77  and  _78
REMARK   37  A    between atoms: _77  and  _80
REMARK   38  A    between atoms: _80  and  _81
REMARK   39  A    between atoms: _86  and  _87
REMARK   40  A    between atoms: _89  and  _91
REMARK   41  A    between atoms: _91  and  _92
REMARK   42  A    between atoms: _95  and  _97
REMARK   43  A    between atoms: _97  and  _98
REMARK   44  A    between atoms: _97  and  _100
REMARK   45  A    between atoms: _100  and  _101
REMARK   46  A    between atoms: _106  and  _108
REMARK   47  A    between atoms: _108  and  _109
REMARK   48  A    between atoms: _111  and  _113
REMARK   49  A    between atoms: _113  and  _114
REMARK   50  A    between atoms: _113  and  _116
REMARK   51  A    between atoms: _116  and  _117
REMARK   52  A    between atoms: _117  and  _118
REMARK   53  A    between atoms: _118  and  _119
REMARK   54  A    between atoms: _128  and  _130
REMARK   55  A    between atoms: _130  and  _131
REMARK   56  A    between atoms: _130  and  _133
REMARK   57  A    between atoms: _136  and  _138
REMARK   58  A    between atoms: _138  and  _139
REMARK   59  A    between atoms: _138  and  _141
REMARK   60  A    between atoms: _141  and  _142
REMARK   61  A    between atoms: _147  and  _149
REMARK   62  A    between atoms: _149  and  _150
REMARK   63  A    between atoms: _149  and  _152
REMARK   64  A    between atoms: _155  and  _157
REMARK   65  A    between atoms: _157  and  _158
REMARK   66  A    between atoms: _157  and  _160
REMARK   67  A    between atoms: _160  and  _161
REMARK   68  A    between atoms: _164  and  _165
REMARK   69  A    between atoms: _170  and  _172
REMARK   70  A    between atoms: _172  and  _173
REMARK   71  A    between atoms: _175  and  _177
REMARK   72  A    between atoms: _177  and  _178
REMARK   73  A    between atoms: _181  and  _183
REMARK   74  A    between atoms: _183  and  _184
REMARK   75  A    between atoms: _183  and  _186
REMARK   76  A    between atoms: _186  and  _187
REMARK   77  A    between atoms: _190  and  _192
REMARK   78  A    between atoms: _192  and  _193
REMARK   79  A    between atoms: _196  and  _198
REMARK   80  A    between atoms: _198  and  _199
REMARK   81  A    between atoms: _198  and  _201
REMARK   82  A    between atoms: _201  and  _202
REMARK   83  A    between atoms: _207  and  _208
REMARK   84  A    between atoms: _210  and  _212
REMARK   85  A    between atoms: _212  and  _213
REMARK   86  A    between atoms: _215  and  _217
REMARK   87  A    between atoms: _217  and  _218
REMARK   88  A    between atoms: _220  and  _222
REMARK   89  A    between atoms: _222  and  _223
REMARK   90  A    between atoms: _226  and  _228
REMARK   91  A    between atoms: _228  and  _229
REMARK   92  A    between atoms: _228  and  _231
REMARK   93  A    between atoms: _231  and  _232
REMARK   94  A    between atoms: _235  and  _237
REMARK   95  A    between atoms: _237  and  _238
REMARK   96  A    between atoms: _240  and  _242
REMARK   97  A    between atoms: _242  and  _243
REMARK   98  A    between atoms: _245  and  _247
REMARK   99  A    between atoms: _247  and  _248
REMARK  100  A    between atoms: _247  and  _250
REMARK  101  A    between atoms: _250  and  _251
REMARK  102  A    between atoms: _257  and  _259
REMARK  103  A    between atoms: _259  and  _260
REMARK  104  A    between atoms: _259  and  _262
REMARK  105  A    between atoms: _262  and  _263
REMARK  106  A    between atoms: _268  and  _270
REMARK  107  A    between atoms: _270  and  _271
REMARK  108  A    between atoms: _270  and  _273
REMARK  109  A    between atoms: _273  and  _274
REMARK  110  A    between atoms: _274  and  _275
REMARK  111  A    between atoms: _275  and  _276
REMARK                            x       y       z     vdW  Elec       q    Type
REMARK                         _______ _______ _______ _____ _____    ______ ____
ROOT
ATOM      1  O   HOH     1     -35.480   0.407   5.990  0.00  0.00    +0.000 OA
ENDROOT
TORSDOF 0
REMARK  Name = ../refined-set-2016/3gr2/3gr2_pocket.pdb
REMARK  111 active torsions:
REMARK  status: ('A' for Active; 'I' for Inactive)
REMARK    1  A    between atoms: _1  and  _3
REMARK    2  A    between atoms: _3  and  _4
REMARK    3  A    between atoms: _3  and  _6
REMARK    4  A    between atoms: _6  and  _7
REMARK    5  A    between atoms: _7  and  _8
REMARK    6  A    between atoms: _11  and  _13
REMARK    7  A    between atoms: _13  and  _14
REMARK    8  A    between atoms: _16  and  _18
REMARK    9  A    between atoms: _18  and  _19
REMARK   10  A    between atoms: _18  and  _21
REMARK   11  A    between atoms: _21  and  _22
REMARK   12  A    between atoms: _24  and  _26
REMARK   13  A    between atoms: _26  and  _27
REMARK   14  A    between atoms: _26  and  _29
REMARK   15  A    between atoms: _29  and  _30
REMARK   16  A    between atoms: _30  and  _31
REMARK   17  A    between atoms: _31  and  _32
REMARK   18  A    between atoms: _32  and  _33
REMARK   19  A    between atoms: _37  and  _39
REMARK   20  A    between atoms: _39  and  _40
REMARK   21  A    between atoms: _39  and  _42
REMARK   22  A    between atoms: _42  and  _43
REMARK   23  A    between atoms: _46  and  _48
REMARK   24  A    between atoms: _48  and  _49
REMARK   25  A    between atoms: _48  and  _51
REMARK   26  A    between atoms: _51  and  _52
REMARK   27  A    between atoms: _52  and  _53
REMARK   28  A    between atoms: _58  and  _60
REMARK   29  A    between atoms: _60  and  _61
REMARK   30  A    between atoms: _60  and  _63
REMARK   31  A    between atoms: _66  and  _68
REMARK   32  A    between atoms: _68  and  _69
REMARK   33  A    between atoms: _68  and  _71
REMARK   34  A    between atoms: _71  and  _72
REMARK   35  A    between atoms: _75  and  _77
REMARK   36  A    between atoms: _77  and  _78
REMARK   37  A    between atoms: _77  and  _80
REMARK   38  A    between atoms: _80  and  _81
REMARK   39  A    between atoms: _86  and  _87
REMARK   40  A    between atoms: _89  and  _91
REMARK   41  A    between atoms: _91  and  _92
REMARK   42  A    between atoms: _95  and  _97
REMARK   43  A    between atoms: _97  and  _98
REMARK   44  A    between atoms: _97  and  _100
REMARK   45  A    between atoms: _100  and  _101
REMARK   46  A    between atoms: _106  and  _108
REMARK   47  A    between atoms: _108  and  _109
REMARK   48  A    between atoms: _111  and  _113
REMARK   49  A    between atoms: _113  and  _114
REMARK   50  A    between atoms: _113  and  _116
REMARK   51  A    between atoms: _116  and  _117
REMARK   52  A    between atoms: _117  and  _118
REMARK   53  A    between atoms: _118  and  _119
REMARK   54  A    between atoms: _128  and  _130
REMARK   55  A    between atoms: _130  and  _131
REMARK   56  A    between atoms: _130  and  _133
REMARK   57  A    between atoms: _136  and  _138
REMARK   58  A    between atoms: _138  and  _139
REMARK   59  A    between atoms: _138  and  _141
REMARK   60  A    between atoms: _141  and  _142
REMARK   61  A    between atoms: _147  and  _149
REMARK   62  A    between atoms: _149  and  _150
REMARK   63  A    between atoms: _149  and  _152
REMARK   64  A    between atoms: _155  and  _157
REMARK   65  A    between atoms: _157  and  _158
REMARK   66  A    between atoms: _157  and  _160
REMARK   67  A    between atoms: _160  and  _161
REMARK   68  A    between atoms: _164  and  _165
REMARK   69  A    between atoms: _170  and  _172
REMARK   70  A    between atoms: _172  and  _173
REMARK   71  A    between atoms: _175  and  _177
REMARK   72  A    between atoms: _177  and  _178
REMARK   73  A    between atoms: _181  and  _183
REMARK   74  A    between atoms: _183  and  _184
REMARK   75  A    between atoms: _183  and  _186
REMARK   76  A    between atoms: _186  and  _187
REMARK   77  A    between atoms: _190  and  _192
REMARK   78  A    between atoms: _192  and  _193
REMARK   79  A    between atoms: _196  and  _198
REMARK   80  A    between atoms: _198  and  _199
REMARK   81  A    between atoms: _198  and  _201
REMARK   82  A    between atoms: _201  and  _202
REMARK   83  A    between atoms: _207  and  _208
REMARK   84  A    between atoms: _210  and  _212
REMARK   85  A    between atoms: _212  and  _213
REMARK   86  A    between atoms: _215  and  _217
REMARK   87  A    between atoms: _217  and  _218
REMARK   88  A    between atoms: _220  and  _222
REMARK   89  A    between atoms: _222  and  _223
REMARK   90  A    between atoms: _226  and  _228
REMARK   91  A    between atoms: _228  and  _229
REMARK   92  A    between atoms: _228  and  _231
REMARK   93  A    between atoms: _231  and  _232
REMARK   94  A    between atoms: _235  and  _237
REMARK   95  A    between atoms: _237  and  _238
REMARK   96  A    between atoms: _240  and  _242
REMARK   97  A    between atoms: _242  and  _243
REMARK   98  A    between atoms: _245  and  _247
REMARK   99  A    between atoms: _247  and  _248
REMARK  100  A    between atoms: _247  and  _250
REMARK  101  A    between atoms: _250  and  _251
REMARK  102  A    between atoms: _257  and  _259
REMARK  103  A    between atoms: _259  and  _260
REMARK  104  A    between atoms: _259  and  _262
REMARK  105  A    between atoms: _262  and  _263
REMARK  106  A    between atoms: _268  and  _270
REMARK  107  A    between atoms: _270  and  _271
REMARK  108  A    between atoms: _270  and  _273
REMARK  109  A    between atoms: _273  and  _274
REMARK  110  A    between atoms: _274  and  _275
REMARK  111  A    between atoms: _275  and  _276
REMARK                            x       y       z     vdW  Elec       q    Type
REMARK                         _______ _______ _______ _____ _____    ______ ____
ROOT
ATOM      1  O   HOH     1     -43.514   5.576  16.216  0.00  0.00    +0.000 OA
ENDROOT
TORSDOF 0
REMARK  Name = ../refined-set-2016/3gr2/3gr2_pocket.pdb
REMARK  111 active torsions:
REMARK  status: ('A' for Active; 'I' for Inactive)
REMARK    1  A    between atoms: _1  and  _3
REMARK    2  A    between atoms: _3  and  _4
REMARK    3  A    between atoms: _3  and  _6
REMARK    4  A    between atoms: _6  and  _7
REMARK    5  A    between atoms: _7  and  _8
REMARK    6  A    between atoms: _11  and  _13
REMARK    7  A    between atoms: _13  and  _14
REMARK    8  A    between atoms: _16  and  _18
REMARK    9  A    between atoms: _18  and  _19
REMARK   10  A    between atoms: _18  and  _21
REMARK   11  A    between atoms: _21  and  _22
REMARK   12  A    between atoms: _24  and  _26
REMARK   13  A    between atoms: _26  and  _27
REMARK   14  A    between atoms: _26  and  _29
REMARK   15  A    between atoms: _29  and  _30
REMARK   16  A    between atoms: _30  and  _31
REMARK   17  A    between atoms: _31  and  _32
REMARK   18  A    between atoms: _32  and  _33
REMARK   19  A    between atoms: _37  and  _39
REMARK   20  A    between atoms: _39  and  _40
REMARK   21  A    between atoms: _39  and  _42
REMARK   22  A    between atoms: _42  and  _43
REMARK   23  A    between atoms: _46  and  _48
REMARK   24  A    between atoms: _48  and  _49
REMARK   25  A    between atoms: _48  and  _51
REMARK   26  A    between atoms: _51  and  _52
REMARK   27  A    between atoms: _52  and  _53
REMARK   28  A    between atoms: _58  and  _60
REMARK   29  A    between atoms: _60  and  _61
REMARK   30  A    between atoms: _60  and  _63
REMARK   31  A    between atoms: _66  and  _68
REMARK   32  A    between atoms: _68  and  _69
REMARK   33  A    between atoms: _68  and  _71
REMARK   34  A    between atoms: _71  and  _72
REMARK   35  A    between atoms: _75  and  _77
REMARK   36  A    between atoms: _77  and  _78
REMARK   37  A    between atoms: _77  and  _80
REMARK   38  A    between atoms: _80  and  _81
REMARK   39  A    between atoms: _86  and  _87
REMARK   40  A    between atoms: _89  and  _91
REMARK   41  A    between atoms: _91  and  _92
REMARK   42  A    between atoms: _95  and  _97
REMARK   43  A    between atoms: _97  and  _98
REMARK   44  A    between atoms: _97  and  _100
REMARK   45  A    between atoms: _100  and  _101
REMARK   46  A    between atoms: _106  and  _108
REMARK   47  A    between atoms: _108  and  _109
REMARK   48  A    between atoms: _111  and  _113
REMARK   49  A    between atoms: _113  and  _114
REMARK   50  A    between atoms: _113  and  _116
REMARK   51  A    between atoms: _116  and  _117
REMARK   52  A    between atoms: _117  and  _118
REMARK   53  A    between atoms: _118  and  _119
REMARK   54  A    between atoms: _128  and  _130
REMARK   55  A    between atoms: _130  and  _131
REMARK   56  A    between atoms: _130  and  _133
REMARK   57  A    between atoms: _136  and  _138
REMARK   58  A    between atoms: _138  and  _139
REMARK   59  A    between atoms: _138  and  _141
REMARK   60  A    between atoms: _141  and  _142
REMARK   61  A    between atoms: _147  and  _149
REMARK   62  A    between atoms: _149  and  _150
REMARK   63  A    between atoms: _149  and  _152
REMARK   64  A    between atoms: _155  and  _157
REMARK   65  A    between atoms: _157  and  _158
REMARK   66  A    between atoms: _157  and  _160
REMARK   67  A    between atoms: _160  and  _161
REMARK   68  A    between atoms: _164  and  _165
REMARK   69  A    between atoms: _170  and  _172
REMARK   70  A    between atoms: _172  and  _173
REMARK   71  A    between atoms: _175  and  _177
REMARK   72  A    between atoms: _177  and  _178
REMARK   73  A    between atoms: _181  and  _183
REMARK   74  A    between atoms: _183  and  _184
REMARK   75  A    between atoms: _183  and  _186
REMARK   76  A    between atoms: _186  and  _187
REMARK   77  A    between atoms: _190  and  _192
REMARK   78  A    between atoms: _192  and  _193
REMARK   79  A    between atoms: _196  and  _198
REMARK   80  A    between atoms: _198  and  _199
REMARK   81  A    between atoms: _198  and  _201
REMARK   82  A    between atoms: _201  and  _202
REMARK   83  A    between atoms: _207  and  _208
REMARK   84  A    between atoms: _210  and  _212
REMARK   85  A    between atoms: _212  and  _213
REMARK   86  A    between atoms: _215  and  _217
REMARK   87  A    between atoms: _217  and  _218
REMARK   88  A    between atoms: _220  and  _222
REMARK   89  A    between atoms: _222  and  _223
REMARK   90  A    between atoms: _226  and  _228
REMARK   91  A    between atoms: _228  and  _229
REMARK   92  A    between atoms: _228  and  _231
REMARK   93  A    between atoms: _231  and  _232
REMARK   94  A    between atoms: _235  and  _237
REMARK   95  A    between atoms: _237  and  _238
REMARK   96  A    between atoms: _240  and  _242
REMARK   97  A    between atoms: _242  and  _243
REMARK   98  A    between atoms: _245  and  _247
REMARK   99  A    between atoms: _247  and  _248
REMARK  100  A    between atoms: _247  and  _250
REMARK  101  A    between atoms: _250  and  _251
REMARK  102  A    between atoms: _257  and  _259
REMARK  103  A    between atoms: _259  and  _260
REMARK  104  A    between atoms: _259  and  _262
REMARK  105  A    between atoms: _262  and  _263
REMARK  106  A    between atoms: _268  and  _270
REMARK  107  A    between atoms: _270  and  _271
REMARK  108  A    between atoms: _270  and  _273
REMARK  109  A    between atoms: _273  and  _274
REMARK  110  A    between atoms: _274  and  _275
REMARK  111  A    between atoms: _275  and  _276
REMARK                            x       y       z     vdW  Elec       q    Type
REMARK                         _______ _______ _______ _____ _____    ______ ____
ROOT
ATOM      1  O   HOH     1     -42.196  -0.429  11.779  0.00  0.00    +0.000 OA
ENDROOT
TORSDOF 0
REMARK  Name = ../refined-set-2016/3gr2/3gr2_pocket.pdb
REMARK  111 active torsions:
REMARK  status: ('A' for Active; 'I' for Inactive)
REMARK    1  A    between atoms: _1  and  _3
REMARK    2  A    between atoms: _3  and  _4
REMARK    3  A    between atoms: _3  and  _6
REMARK    4  A    between atoms: _6  and  _7
REMARK    5  A    between atoms: _7  and  _8
REMARK    6  A    between atoms: _11  and  _13
REMARK    7  A    between atoms: _13  and  _14
REMARK    8  A    between atoms: _16  and  _18
REMARK    9  A    between atoms: _18  and  _19
REMARK   10  A    between atoms: _18  and  _21
REMARK   11  A    between atoms: _21  and  _22
REMARK   12  A    between atoms: _24  and  _26
REMARK   13  A    between atoms: _26  and  _27
REMARK   14  A    between atoms: _26  and  _29
REMARK   15  A    between atoms: _29  and  _30
REMARK   16  A    between atoms: _30  and  _31
REMARK   17  A    between atoms: _31  and  _32
REMARK   18  A    between atoms: _32  and  _33
REMARK   19  A    between atoms: _37  and  _39
REMARK   20  A    between atoms: _39  and  _40
REMARK   21  A    between atoms: _39  and  _42
REMARK   22  A    between atoms: _42  and  _43
REMARK   23  A    between atoms: _46  and  _48
REMARK   24  A    between atoms: _48  and  _49
REMARK   25  A    between atoms: _48  and  _51
REMARK   26  A    between atoms: _51  and  _52
REMARK   27  A    between atoms: _52  and  _53
REMARK   28  A    between atoms: _58  and  _60
REMARK   29  A    between atoms: _60  and  _61
REMARK   30  A    between atoms: _60  and  _63
REMARK   31  A    between atoms: _66  and  _68
REMARK   32  A    between atoms: _68  and  _69
REMARK   33  A    between atoms: _68  and  _71
REMARK   34  A    between atoms: _71  and  _72
REMARK   35  A    between atoms: _75  and  _77
REMARK   36  A    between atoms: _77  and  _78
REMARK   37  A    between atoms: _77  and  _80
REMARK   38  A    between atoms: _80  and  _81
REMARK   39  A    between atoms: _86  and  _87
REMARK   40  A    between atoms: _89  and  _91
REMARK   41  A    between atoms: _91  and  _92
REMARK   42  A    between atoms: _95  and  _97
REMARK   43  A    between atoms: _97  and  _98
REMARK   44  A    between atoms: _97  and  _100
REMARK   45  A    between atoms: _100  and  _101
REMARK   46  A    between atoms: _106  and  _108
REMARK   47  A    between atoms: _108  and  _109
REMARK   48  A    between atoms: _111  and  _113
REMARK   49  A    between atoms: _113  and  _114
REMARK   50  A    between atoms: _113  and  _116
REMARK   51  A    between atoms: _116  and  _117
REMARK   52  A    between atoms: _117  and  _118
REMARK   53  A    between atoms: _118  and  _119
REMARK   54  A    between atoms: _128  and  _130
REMARK   55  A    between atoms: _130  and  _131
REMARK   56  A    between atoms: _130  and  _133
REMARK   57  A    between atoms: _136  and  _138
REMARK   58  A    between atoms: _138  and  _139
REMARK   59  A    between atoms: _138  and  _141
REMARK   60  A    between atoms: _141  and  _142
REMARK   61  A    between atoms: _147  and  _149
REMARK   62  A    between atoms: _149  and  _150
REMARK   63  A    between atoms: _149  and  _152
REMARK   64  A    between atoms: _155  and  _157
REMARK   65  A    between atoms: _157  and  _158
REMARK   66  A    between atoms: _157  and  _160
REMARK   67  A    between atoms: _160  and  _161
REMARK   68  A    between atoms: _164  and  _165
REMARK   69  A    between atoms: _170  and  _172
REMARK   70  A    between atoms: _172  and  _173
REMARK   71  A    between atoms: _175  and  _177
REMARK   72  A    between atoms: _177  and  _178
REMARK   73  A    between atoms: _181  and  _183
REMARK   74  A    between atoms: _183  and  _184
REMARK   75  A    between atoms: _183  and  _186
REMARK   76  A    between atoms: _186  and  _187
REMARK   77  A    between atoms: _190  and  _192
REMARK   78  A    between atoms: _192  and  _193
REMARK   79  A    between atoms: _196  and  _198
REMARK   80  A    between atoms: _198  and  _199
REMARK   81  A    between atoms: _198  and  _201
REMARK   82  A    between atoms: _201  and  _202
REMARK   83  A    between atoms: _207  and  _208
REMARK   84  A    between atoms: _210  and  _212
REMARK   85  A    between atoms: _212  and  _213
REMARK   86  A    between atoms: _215  and  _217
REMARK   87  A    between atoms: _217  and  _218
REMARK   88  A    between atoms: _220  and  _222
REMARK   89  A    between atoms: _222  and  _223
REMARK   90  A    between atoms: _226  and  _228
REMARK   91  A    between atoms: _228  and  _229
REMARK   92  A    between atoms: _228  and  _231
REMARK   93  A    between atoms: _231  and  _232
REMARK   94  A    between atoms: _235  and  _237
REMARK   95  A    between atoms: _237  and  _238
REMARK   96  A    between atoms: _240  and  _242
REMARK   97  A    between atoms: _242  and  _243
REMARK   98  A    between atoms: _245  and  _247
REMARK   99  A    between atoms: _247  and  _248
REMARK  100  A    between atoms: _247  and  _250
REMARK  101  A    between atoms: _250  and  _251
REMARK  102  A    between atoms: _257  and  _259
REMARK  103  A    between atoms: _259  and  _260
REMARK  104  A    between atoms: _259  and  _262
REMARK  105  A    between atoms: _262  and  _263
REMARK  106  A    between atoms: _268  and  _270
REMARK  107  A    between atoms: _270  and  _271
REMARK  108  A    between atoms: _270  and  _273
REMARK  109  A    between atoms: _273  and  _274
REMARK  110  A    between atoms: _274  and  _275
REMARK  111  A    between atoms: _275  and  _276
REMARK                            x       y       z     vdW  Elec       q    Type
REMARK                         _______ _______ _______ _____ _____    ______ ____
ROOT
ATOM      1  O   HOH     1     -45.510  -0.955   6.099  0.00  0.00    +0.000 OA
ENDROOT
TORSDOF 0
REMARK  Name = ../refined-set-2016/3gr2/3gr2_pocket.pdb
REMARK  111 active torsions:
REMARK  status: ('A' for Active; 'I' for Inactive)
REMARK    1  A    between atoms: _1  and  _3
REMARK    2  A    between atoms: _3  and  _4
REMARK    3  A    between atoms: _3  and  _6
REMARK    4  A    between atoms: _6  and  _7
REMARK    5  A    between atoms: _7  and  _8
REMARK    6  A    between atoms: _11  and  _13
REMARK    7  A    between atoms: _13  and  _14
REMARK    8  A    between atoms: _16  and  _18
REMARK    9  A    between atoms: _18  and  _19
REMARK   10  A    between atoms: _18  and  _21
REMARK   11  A    between atoms: _21  and  _22
REMARK   12  A    between atoms: _24  and  _26
REMARK   13  A    between atoms: _26  and  _27
REMARK   14  A    between atoms: _26  and  _29
REMARK   15  A    between atoms: _29  and  _30
REMARK   16  A    between atoms: _30  and  _31
REMARK   17  A    between atoms: _31  and  _32
REMARK   18  A    between atoms: _32  and  _33
REMARK   19  A    between atoms: _37  and  _39
REMARK   20  A    between atoms: _39  and  _40
REMARK   21  A    between atoms: _39  and  _42
REMARK   22  A    between atoms: _42  and  _43
REMARK   23  A    between atoms: _46  and  _48
REMARK   24  A    between atoms: _48  and  _49
REMARK   25  A    between atoms: _48  and  _51
REMARK   26  A    between atoms: _51  and  _52
REMARK   27  A    between atoms: _52  and  _53
REMARK   28  A    between atoms: _58  and  _60
REMARK   29  A    between atoms: _60  and  _61
REMARK   30  A    between atoms: _60  and  _63
REMARK   31  A    between atoms: _66  and  _68
REMARK   32  A    between atoms: _68  and  _69
REMARK   33  A    between atoms: _68  and  _71
REMARK   34  A    between atoms: _71  and  _72
REMARK   35  A    between atoms: _75  and  _77
REMARK   36  A    between atoms: _77  and  _78
REMARK   37  A    between atoms: _77  and  _80
REMARK   38  A    between atoms: _80  and  _81
REMARK   39  A    between atoms: _86  and  _87
REMARK   40  A    between atoms: _89  and  _91
REMARK   41  A    between atoms: _91  and  _92
REMARK   42  A    between atoms: _95  and  _97
REMARK   43  A    between atoms: _97  and  _98
REMARK   44  A    between atoms: _97  and  _100
REMARK   45  A    between atoms: _100  and  _101
REMARK   46  A    between atoms: _106  and  _108
REMARK   47  A    between atoms: _108  and  _109
REMARK   48  A    between atoms: _111  and  _113
REMARK   49  A    between atoms: _113  and  _114
REMARK   50  A    between atoms: _113  and  _116
REMARK   51  A    between atoms: _116  and  _117
REMARK   52  A    between atoms: _117  and  _118
REMARK   53  A    between atoms: _118  and  _119
REMARK   54  A    between atoms: _128  and  _130
REMARK   55  A    between atoms: _130  and  _131
REMARK   56  A    between atoms: _130  and  _133
REMARK   57  A    between atoms: _136  and  _138
REMARK   58  A    between atoms: _138  and  _139
REMARK   59  A    between atoms: _138  and  _141
REMARK   60  A    between atoms: _141  and  _142
REMARK   61  A    between atoms: _147  and  _149
REMARK   62  A    between atoms: _149  and  _150
REMARK   63  A    between atoms: _149  and  _152
REMARK   64  A    between atoms: _155  and  _157
REMARK   65  A    between atoms: _157  and  _158
REMARK   66  A    between atoms: _157  and  _160
REMARK   67  A    between atoms: _160  and  _161
REMARK   68  A    between atoms: _164  and  _165
REMARK   69  A    between atoms: _170  and  _172
REMARK   70  A    between atoms: _172  and  _173
REMARK   71  A    between atoms: _175  and  _177
REMARK   72  A    between atoms: _177  and  _178
REMARK   73  A    between atoms: _181  and  _183
REMARK   74  A    between atoms: _183  and  _184
REMARK   75  A    between atoms: _183  and  _186
REMARK   76  A    between atoms: _186  and  _187
REMARK   77  A    between atoms: _190  and  _192
REMARK   78  A    between atoms: _192  and  _193
REMARK   79  A    between atoms: _196  and  _198
REMARK   80  A    between atoms: _198  and  _199
REMARK   81  A    between atoms: _198  and  _201
REMARK   82  A    between atoms: _201  and  _202
REMARK   83  A    between atoms: _207  and  _208
REMARK   84  A    between atoms: _210  and  _212
REMARK   85  A    between atoms: _212  and  _213
REMARK   86  A    between atoms: _215  and  _217
REMARK   87  A    between atoms: _217  and  _218
REMARK   88  A    between atoms: _220  and  _222
REMARK   89  A    between atoms: _222  and  _223
REMARK   90  A    between atoms: _226  and  _228
REMARK   91  A    between atoms: _228  and  _229
REMARK   92  A    between atoms: _228  and  _231
REMARK   93  A    between atoms: _231  and  _232
REMARK   94  A    between atoms: _235  and  _237
REMARK   95  A    between atoms: _237  and  _238
REMARK   96  A    between atoms: _240  and  _242
REMARK   97  A    between atoms: _242  and  _243
REMARK   98  A    between atoms: _245  and  _247
REMARK   99  A    between atoms: _247  and  _248
REMARK  100  A    between atoms: _247  and  _250
REMARK  101  A    between atoms: _250  and  _251
REMARK  102  A    between atoms: _257  and  _259
REMARK  103  A    between atoms: _259  and  _260
REMARK  104  A    between atoms: _259  and  _262
REMARK  105  A    between atoms: _262  and  _263
REMARK  106  A    between atoms: _268  and  _270
REMARK  107  A    between atoms: _270  and  _271
REMARK  108  A    between atoms: _270  and  _273
REMARK  109  A    between atoms: _273  and  _274
REMARK  110  A    between atoms: _274  and  _275
REMARK  111  A    between atoms: _275  and  _276
REMARK                            x       y       z     vdW  Elec       q    Type
REMARK                         _______ _______ _______ _____ _____    ______ ____
ROOT
ATOM      1  O   HOH     1     -36.137   4.459  21.059  0.00  0.00    +0.000 OA
ENDROOT
TORSDOF 0
REMARK  Name = ../refined-set-2016/3gr2/3gr2_pocket.pdb
REMARK  111 active torsions:
REMARK  status: ('A' for Active; 'I' for Inactive)
REMARK    1  A    between atoms: _1  and  _3
REMARK    2  A    between atoms: _3  and  _4
REMARK    3  A    between atoms: _3  and  _6
REMARK    4  A    between atoms: _6  and  _7
REMARK    5  A    between atoms: _7  and  _8
REMARK    6  A    between atoms: _11  and  _13
REMARK    7  A    between atoms: _13  and  _14
REMARK    8  A    between atoms: _16  and  _18
REMARK    9  A    between atoms: _18  and  _19
REMARK   10  A    between atoms: _18  and  _21
REMARK   11  A    between atoms: _21  and  _22
REMARK   12  A    between atoms: _24  and  _26
REMARK   13  A    between atoms: _26  and  _27
REMARK   14  A    between atoms: _26  and  _29
REMARK   15  A    between atoms: _29  and  _30
REMARK   16  A    between atoms: _30  and  _31
REMARK   17  A    between atoms: _31  and  _32
REMARK   18  A    between atoms: _32  and  _33
REMARK   19  A    between atoms: _37  and  _39
REMARK   20  A    between atoms: _39  and  _40
REMARK   21  A    between atoms: _39  and  _42
REMARK   22  A    between atoms: _42  and  _43
REMARK   23  A    between atoms: _46  and  _48
REMARK   24  A    between atoms: _48  and  _49
REMARK   25  A    between atoms: _48  and  _51
REMARK   26  A    between atoms: _51  and  _52
REMARK   27  A    between atoms: _52  and  _53
REMARK   28  A    between atoms: _58  and  _60
REMARK   29  A    between atoms: _60  and  _61
REMARK   30  A    between atoms: _60  and  _63
REMARK   31  A    between atoms: _66  and  _68
REMARK   32  A    between atoms: _68  and  _69
REMARK   33  A    between atoms: _68  and  _71
REMARK   34  A    between atoms: _71  and  _72
REMARK   35  A    between atoms: _75  and  _77
REMARK   36  A    between atoms: _77  and  _78
REMARK   37  A    between atoms: _77  and  _80
REMARK   38  A    between atoms: _80  and  _81
REMARK   39  A    between atoms: _86  and  _87
REMARK   40  A    between atoms: _89  and  _91
REMARK   41  A    between atoms: _91  and  _92
REMARK   42  A    between atoms: _95  and  _97
REMARK   43  A    between atoms: _97  and  _98
REMARK   44  A    between atoms: _97  and  _100
REMARK   45  A    between atoms: _100  and  _101
REMARK   46  A    between atoms: _106  and  _108
REMARK   47  A    between atoms: _108  and  _109
REMARK   48  A    between atoms: _111  and  _113
REMARK   49  A    between atoms: _113  and  _114
REMARK   50  A    between atoms: _113  and  _116
REMARK   51  A    between atoms: _116  and  _117
REMARK   52  A    between atoms: _117  and  _118
REMARK   53  A    between atoms: _118  and  _119
REMARK   54  A    between atoms: _128  and  _130
REMARK   55  A    between atoms: _130  and  _131
REMARK   56  A    between atoms: _130  and  _133
REMARK   57  A    between atoms: _136  and  _138
REMARK   58  A    between atoms: _138  and  _139
REMARK   59  A    between atoms: _138  and  _141
REMARK   60  A    between atoms: _141  and  _142
REMARK   61  A    between atoms: _147  and  _149
REMARK   62  A    between atoms: _149  and  _150
REMARK   63  A    between atoms: _149  and  _152
REMARK   64  A    between atoms: _155  and  _157
REMARK   65  A    between atoms: _157  and  _158
REMARK   66  A    between atoms: _157  and  _160
REMARK   67  A    between atoms: _160  and  _161
REMARK   68  A    between atoms: _164  and  _165
REMARK   69  A    between atoms: _170  and  _172
REMARK   70  A    between atoms: _172  and  _173
REMARK   71  A    between atoms: _175  and  _177
REMARK   72  A    between atoms: _177  and  _178
REMARK   73  A    between atoms: _181  and  _183
REMARK   74  A    between atoms: _183  and  _184
REMARK   75  A    between atoms: _183  and  _186
REMARK   76  A    between atoms: _186  and  _187
REMARK   77  A    between atoms: _190  and  _192
REMARK   78  A    between atoms: _192  and  _193
REMARK   79  A    between atoms: _196  and  _198
REMARK   80  A    between atoms: _198  and  _199
REMARK   81  A    between atoms: _198  and  _201
REMARK   82  A    between atoms: _201  and  _202
REMARK   83  A    between atoms: _207  and  _208
REMARK   84  A    between atoms: _210  and  _212
REMARK   85  A    between atoms: _212  and  _213
REMARK   86  A    between atoms: _215  and  _217
REMARK   87  A    between atoms: _217  and  _218
REMARK   88  A    between atoms: _220  and  _222
REMARK   89  A    between atoms: _222  and  _223
REMARK   90  A    between atoms: _226  and  _228
REMARK   91  A    between atoms: _228  and  _229
REMARK   92  A    between atoms: _228  and  _231
REMARK   93  A    between atoms: _231  and  _232
REMARK   94  A    between atoms: _235  and  _237
REMARK   95  A    between atoms: _237  and  _238
REMARK   96  A    between atoms: _240  and  _242
REMARK   97  A    between atoms: _242  and  _243
REMARK   98  A    between atoms: _245  and  _247
REMARK   99  A    between atoms: _247  and  _248
REMARK  100  A    between atoms: _247  and  _250
REMARK  101  A    between atoms: _250  and  _251
REMARK  102  A    between atoms: _257  and  _259
REMARK  103  A    between atoms: _259  and  _260
REMARK  104  A    between atoms: _259  and  _262
REMARK  105  A    between atoms: _262  and  _263
REMARK  106  A    between atoms: _268  and  _270
REMARK  107  A    between atoms: _270  and  _271
REMARK  108  A    between atoms: _270  and  _273
REMARK  109  A    between atoms: _273  and  _274
REMARK  110  A    between atoms: _274  and  _275
REMARK  111  A    between atoms: _275  and  _276
REMARK                            x       y       z     vdW  Elec       q    Type
REMARK                         _______ _______ _______ _____ _____    ______ ____
ROOT
ATOM      1  O   HOH     1     -42.748   4.839   6.836  0.00  0.00    +0.000 OA
ENDROOT
TORSDOF 0
REMARK  Name = ../refined-set-2016/3gr2/3gr2_pocket.pdb
REMARK  111 active torsions:
REMARK  status: ('A' for Active; 'I' for Inactive)
REMARK    1  A    between atoms: _1  and  _3
REMARK    2  A    between atoms: _3  and  _4
REMARK    3  A    between atoms: _3  and  _6
REMARK    4  A    between atoms: _6  and  _7
REMARK    5  A    between atoms: _7  and  _8
REMARK    6  A    between atoms: _11  and  _13
REMARK    7  A    between atoms: _13  and  _14
REMARK    8  A    between atoms: _16  and  _18
REMARK    9  A    between atoms: _18  and  _19
REMARK   10  A    between atoms: _18  and  _21
REMARK   11  A    between atoms: _21  and  _22
REMARK   12  A    between atoms: _24  and  _26
REMARK   13  A    between atoms: _26  and  _27
REMARK   14  A    between atoms: _26  and  _29
REMARK   15  A    between atoms: _29  and  _30
REMARK   16  A    between atoms: _30  and  _31
REMARK   17  A    between atoms: _31  and  _32
REMARK   18  A    between atoms: _32  and  _33
REMARK   19  A    between atoms: _37  and  _39
REMARK   20  A    between atoms: _39  and  _40
REMARK   21  A    between atoms: _39  and  _42
REMARK   22  A    between atoms: _42  and  _43
REMARK   23  A    between atoms: _46  and  _48
REMARK   24  A    between atoms: _48  and  _49
REMARK   25  A    between atoms: _48  and  _51
REMARK   26  A    between atoms: _51  and  _52
REMARK   27  A    between atoms: _52  and  _53
REMARK   28  A    between atoms: _58  and  _60
REMARK   29  A    between atoms: _60  and  _61
REMARK   30  A    between atoms: _60  and  _63
REMARK   31  A    between atoms: _66  and  _68
REMARK   32  A    between atoms: _68  and  _69
REMARK   33  A    between atoms: _68  and  _71
REMARK   34  A    between atoms: _71  and  _72
REMARK   35  A    between atoms: _75  and  _77
REMARK   36  A    between atoms: _77  and  _78
REMARK   37  A    between atoms: _77  and  _80
REMARK   38  A    between atoms: _80  and  _81
REMARK   39  A    between atoms: _86  and  _87
REMARK   40  A    between atoms: _89  and  _91
REMARK   41  A    between atoms: _91  and  _92
REMARK   42  A    between atoms: _95  and  _97
REMARK   43  A    between atoms: _97  and  _98
REMARK   44  A    between atoms: _97  and  _100
REMARK   45  A    between atoms: _100  and  _101
REMARK   46  A    between atoms: _106  and  _108
REMARK   47  A    between atoms: _108  and  _109
REMARK   48  A    between atoms: _111  and  _113
REMARK   49  A    between atoms: _113  and  _114
REMARK   50  A    between atoms: _113  and  _116
REMARK   51  A    between atoms: _116  and  _117
REMARK   52  A    between atoms: _117  and  _118
REMARK   53  A    between atoms: _118  and  _119
REMARK   54  A    between atoms: _128  and  _130
REMARK   55  A    between atoms: _130  and  _131
REMARK   56  A    between atoms: _130  and  _133
REMARK   57  A    between atoms: _136  and  _138
REMARK   58  A    between atoms: _138  and  _139
REMARK   59  A    between atoms: _138  and  _141
REMARK   60  A    between atoms: _141  and  _142
REMARK   61  A    between atoms: _147  and  _149
REMARK   62  A    between atoms: _149  and  _150
REMARK   63  A    between atoms: _149  and  _152
REMARK   64  A    between atoms: _155  and  _157
REMARK   65  A    between atoms: _157  and  _158
REMARK   66  A    between atoms: _157  and  _160
REMARK   67  A    between atoms: _160  and  _161
REMARK   68  A    between atoms: _164  and  _165
REMARK   69  A    between atoms: _170  and  _172
REMARK   70  A    between atoms: _172  and  _173
REMARK   71  A    between atoms: _175  and  _177
REMARK   72  A    between atoms: _177  and  _178
REMARK   73  A    between atoms: _181  and  _183
REMARK   74  A    between atoms: _183  and  _184
REMARK   75  A    between atoms: _183  and  _186
REMARK   76  A    between atoms: _186  and  _187
REMARK   77  A    between atoms: _190  and  _192
REMARK   78  A    between atoms: _192  and  _193
REMARK   79  A    between atoms: _196  and  _198
REMARK   80  A    between atoms: _198  and  _199
REMARK   81  A    between atoms: _198  and  _201
REMARK   82  A    between atoms: _201  and  _202
REMARK   83  A    between atoms: _207  and  _208
REMARK   84  A    between atoms: _210  and  _212
REMARK   85  A    between atoms: _212  and  _213
REMARK   86  A    between atoms: _215  and  _217
REMARK   87  A    between atoms: _217  and  _218
REMARK   88  A    between atoms: _220  and  _222
REMARK   89  A    between atoms: _222  and  _223
REMARK   90  A    between atoms: _226  and  _228
REMARK   91  A    between atoms: _228  and  _229
REMARK   92  A    between atoms: _228  and  _231
REMARK   93  A    between atoms: _231  and  _232
REMARK   94  A    between atoms: _235  and  _237
REMARK   95  A    between atoms: _237  and  _238
REMARK   96  A    between atoms: _240  and  _242
REMARK   97  A    between atoms: _242  and  _243
REMARK   98  A    between atoms: _245  and  _247
REMARK   99  A    between atoms: _247  and  _248
REMARK  100  A    between atoms: _247  and  _250
REMARK  101  A    between atoms: _250  and  _251
REMARK  102  A    between atoms: _257  and  _259
REMARK  103  A    between atoms: _259  and  _260
REMARK  104  A    between atoms: _259  and  _262
REMARK  105  A    between atoms: _262  and  _263
REMARK  106  A    between atoms: _268  and  _270
REMARK  107  A    between atoms: _270  and  _271
REMARK  108  A    between atoms: _270  and  _273
REMARK  109  A    between atoms: _273  and  _274
REMARK  110  A    between atoms: _274  and  _275
REMARK  111  A    between atoms: _275  and  _276
REMARK                            x       y       z     vdW  Elec       q    Type
REMARK                         _______ _______ _______ _____ _____    ______ ____
ROOT
ATOM      1  O   HOH     1     -42.770   1.795  10.325  0.00  0.00    +0.000 OA
ENDROOT
TORSDOF 0
REMARK  Name = ../refined-set-2016/3gr2/3gr2_pocket.pdb
REMARK  111 active torsions:
REMARK  status: ('A' for Active; 'I' for Inactive)
REMARK    1  A    between atoms: _1  and  _3
REMARK    2  A    between atoms: _3  and  _4
REMARK    3  A    between atoms: _3  and  _6
REMARK    4  A    between atoms: _6  and  _7
REMARK    5  A    between atoms: _7  and  _8
REMARK    6  A    between atoms: _11  and  _13
REMARK    7  A    between atoms: _13  and  _14
REMARK    8  A    between atoms: _16  and  _18
REMARK    9  A    between atoms: _18  and  _19
REMARK   10  A    between atoms: _18  and  _21
REMARK   11  A    between atoms: _21  and  _22
REMARK   12  A    between atoms: _24  and  _26
REMARK   13  A    between atoms: _26  and  _27
REMARK   14  A    between atoms: _26  and  _29
REMARK   15  A    between atoms: _29  and  _30
REMARK   16  A    between atoms: _30  and  _31
REMARK   17  A    between atoms: _31  and  _32
REMARK   18  A    between atoms: _32  and  _33
REMARK   19  A    between atoms: _37  and  _39
REMARK   20  A    between atoms: _39  and  _40
REMARK   21  A    between atoms: _39  and  _42
REMARK   22  A    between atoms: _42  and  _43
REMARK   23  A    between atoms: _46  and  _48
REMARK   24  A    between atoms: _48  and  _49
REMARK   25  A    between atoms: _48  and  _51
REMARK   26  A    between atoms: _51  and  _52
REMARK   27  A    between atoms: _52  and  _53
REMARK   28  A    between atoms: _58  and  _60
REMARK   29  A    between atoms: _60  and  _61
REMARK   30  A    between atoms: _60  and  _63
REMARK   31  A    between atoms: _66  and  _68
REMARK   32  A    between atoms: _68  and  _69
REMARK   33  A    between atoms: _68  and  _71
REMARK   34  A    between atoms: _71  and  _72
REMARK   35  A    between atoms: _75  and  _77
REMARK   36  A    between atoms: _77  and  _78
REMARK   37  A    between atoms: _77  and  _80
REMARK   38  A    between atoms: _80  and  _81
REMARK   39  A    between atoms: _86  and  _87
REMARK   40  A    between atoms: _89  and  _91
REMARK   41  A    between atoms: _91  and  _92
REMARK   42  A    between atoms: _95  and  _97
REMARK   43  A    between atoms: _97  and  _98
REMARK   44  A    between atoms: _97  and  _100
REMARK   45  A    between atoms: _100  and  _101
REMARK   46  A    between atoms: _106  and  _108
REMARK   47  A    between atoms: _108  and  _109
REMARK   48  A    between atoms: _111  and  _113
REMARK   49  A    between atoms: _113  and  _114
REMARK   50  A    between atoms: _113  and  _116
REMARK   51  A    between atoms: _116  and  _117
REMARK   52  A    between atoms: _117  and  _118
REMARK   53  A    between atoms: _118  and  _119
REMARK   54  A    between atoms: _128  and  _130
REMARK   55  A    between atoms: _130  and  _131
REMARK   56  A    between atoms: _130  and  _133
REMARK   57  A    between atoms: _136  and  _138
REMARK   58  A    between atoms: _138  and  _139
REMARK   59  A    between atoms: _138  and  _141
REMARK   60  A    between atoms: _141  and  _142
REMARK   61  A    between atoms: _147  and  _149
REMARK   62  A    between atoms: _149  and  _150
REMARK   63  A    between atoms: _149  and  _152
REMARK   64  A    between atoms: _155  and  _157
REMARK   65  A    between atoms: _157  and  _158
REMARK   66  A    between atoms: _157  and  _160
REMARK   67  A    between atoms: _160  and  _161
REMARK   68  A    between atoms: _164  and  _165
REMARK   69  A    between atoms: _170  and  _172
REMARK   70  A    between atoms: _172  and  _173
REMARK   71  A    between atoms: _175  and  _177
REMARK   72  A    between atoms: _177  and  _178
REMARK   73  A    between atoms: _181  and  _183
REMARK   74  A    between atoms: _183  and  _184
REMARK   75  A    between atoms: _183  and  _186
REMARK   76  A    between atoms: _186  and  _187
REMARK   77  A    between atoms: _190  and  _192
REMARK   78  A    between atoms: _192  and  _193
REMARK   79  A    between atoms: _196  and  _198
REMARK   80  A    between atoms: _198  and  _199
REMARK   81  A    between atoms: _198  and  _201
REMARK   82  A    between atoms: _201  and  _202
REMARK   83  A    between atoms: _207  and  _208
REMARK   84  A    between atoms: _210  and  _212
REMARK   85  A    between atoms: _212  and  _213
REMARK   86  A    between atoms: _215  and  _217
REMARK   87  A    between atoms: _217  and  _218
REMARK   88  A    between atoms: _220  and  _222
REMARK   89  A    between atoms: _222  and  _223
REMARK   90  A    between atoms: _226  and  _228
REMARK   91  A    between atoms: _228  and  _229
REMARK   92  A    between atoms: _228  and  _231
REMARK   93  A    between atoms: _231  and  _232
REMARK   94  A    between atoms: _235  and  _237
REMARK   95  A    between atoms: _237  and  _238
REMARK   96  A    between atoms: _240  and  _242
REMARK   97  A    between atoms: _242  and  _243
REMARK   98  A    between atoms: _245  and  _247
REMARK   99  A    between atoms: _247  and  _248
REMARK  100  A    between atoms: _247  and  _250
REMARK  101  A    between atoms: _250  and  _251
REMARK  102  A    between atoms: _257  and  _259
REMARK  103  A    between atoms: _259  and  _260
REMARK  104  A    between atoms: _259  and  _262
REMARK  105  A    between atoms: _262  and  _263
REMARK  106  A    between atoms: _268  and  _270
REMARK  107  A    between atoms: _270  and  _271
REMARK  108  A    between atoms: _270  and  _273
REMARK  109  A    between atoms: _273  and  _274
REMARK  110  A    between atoms: _274  and  _275
REMARK  111  A    between atoms: _275  and  _276
REMARK                            x       y       z     vdW  Elec       q    Type
REMARK                         _______ _______ _______ _____ _____    ______ ____
ROOT
ATOM      1  O   HOH     1     -39.022   4.330   1.223  0.00  0.00    +0.000 OA
ENDROOT
TORSDOF 0
REMARK  Name = ../refined-set-2016/3gr2/3gr2_pocket.pdb
REMARK  111 active torsions:
REMARK  status: ('A' for Active; 'I' for Inactive)
REMARK    1  A    between atoms: _1  and  _3
REMARK    2  A    between atoms: _3  and  _4
REMARK    3  A    between atoms: _3  and  _6
REMARK    4  A    between atoms: _6  and  _7
REMARK    5  A    between atoms: _7  and  _8
REMARK    6  A    between atoms: _11  and  _13
REMARK    7  A    between atoms: _13  and  _14
REMARK    8  A    between atoms: _16  and  _18
REMARK    9  A    between atoms: _18  and  _19
REMARK   10  A    between atoms: _18  and  _21
REMARK   11  A    between atoms: _21  and  _22
REMARK   12  A    between atoms: _24  and  _26
REMARK   13  A    between atoms: _26  and  _27
REMARK   14  A    between atoms: _26  and  _29
REMARK   15  A    between atoms: _29  and  _30
REMARK   16  A    between atoms: _30  and  _31
REMARK   17  A    between atoms: _31  and  _32
REMARK   18  A    between atoms: _32  and  _33
REMARK   19  A    between atoms: _37  and  _39
REMARK   20  A    between atoms: _39  and  _40
REMARK   21  A    between atoms: _39  and  _42
REMARK   22  A    between atoms: _42  and  _43
REMARK   23  A    between atoms: _46  and  _48
REMARK   24  A    between atoms: _48  and  _49
REMARK   25  A    between atoms: _48  and  _51
REMARK   26  A    between atoms: _51  and  _52
REMARK   27  A    between atoms: _52  and  _53
REMARK   28  A    between atoms: _58  and  _60
REMARK   29  A    between atoms: _60  and  _61
REMARK   30  A    between atoms: _60  and  _63
REMARK   31  A    between atoms: _66  and  _68
REMARK   32  A    between atoms: _68  and  _69
REMARK   33  A    between atoms: _68  and  _71
REMARK   34  A    between atoms: _71  and  _72
REMARK   35  A    between atoms: _75  and  _77
REMARK   36  A    between atoms: _77  and  _78
REMARK   37  A    between atoms: _77  and  _80
REMARK   38  A    between atoms: _80  and  _81
REMARK   39  A    between atoms: _86  and  _87
REMARK   40  A    between atoms: _89  and  _91
REMARK   41  A    between atoms: _91  and  _92
REMARK   42  A    between atoms: _95  and  _97
REMARK   43  A    between atoms: _97  and  _98
REMARK   44  A    between atoms: _97  and  _100
REMARK   45  A    between atoms: _100  and  _101
REMARK   46  A    between atoms: _106  and  _108
REMARK   47  A    between atoms: _108  and  _109
REMARK   48  A    between atoms: _111  and  _113
REMARK   49  A    between atoms: _113  and  _114
REMARK   50  A    between atoms: _113  and  _116
REMARK   51  A    between atoms: _116  and  _117
REMARK   52  A    between atoms: _117  and  _118
REMARK   53  A    between atoms: _118  and  _119
REMARK   54  A    between atoms: _128  and  _130
REMARK   55  A    between atoms: _130  and  _131
REMARK   56  A    between atoms: _130  and  _133
REMARK   57  A    between atoms: _136  and  _138
REMARK   58  A    between atoms: _138  and  _139
REMARK   59  A    between atoms: _138  and  _141
REMARK   60  A    between atoms: _141  and  _142
REMARK   61  A    between atoms: _147  and  _149
REMARK   62  A    between atoms: _149  and  _150
REMARK   63  A    between atoms: _149  and  _152
REMARK   64  A    between atoms: _155  and  _157
REMARK   65  A    between atoms: _157  and  _158
REMARK   66  A    between atoms: _157  and  _160
REMARK   67  A    between atoms: _160  and  _161
REMARK   68  A    between atoms: _164  and  _165
REMARK   69  A    between atoms: _170  and  _172
REMARK   70  A    between atoms: _172  and  _173
REMARK   71  A    between atoms: _175  and  _177
REMARK   72  A    between atoms: _177  and  _178
REMARK   73  A    between atoms: _181  and  _183
REMARK   74  A    between atoms: _183  and  _184
REMARK   75  A    between atoms: _183  and  _186
REMARK   76  A    between atoms: _186  and  _187
REMARK   77  A    between atoms: _190  and  _192
REMARK   78  A    between atoms: _192  and  _193
REMARK   79  A    between atoms: _196  and  _198
REMARK   80  A    between atoms: _198  and  _199
REMARK   81  A    between atoms: _198  and  _201
REMARK   82  A    between atoms: _201  and  _202
REMARK   83  A    between atoms: _207  and  _208
REMARK   84  A    between atoms: _210  and  _212
REMARK   85  A    between atoms: _212  and  _213
REMARK   86  A    between atoms: _215  and  _217
REMARK   87  A    between atoms: _217  and  _218
REMARK   88  A    between atoms: _220  and  _222
REMARK   89  A    between atoms: _222  and  _223
REMARK   90  A    between atoms: _226  and  _228
REMARK   91  A    between atoms: _228  and  _229
REMARK   92  A    between atoms: _228  and  _231
REMARK   93  A    between atoms: _231  and  _232
REMARK   94  A    between atoms: _235  and  _237
REMARK   95  A    between atoms: _237  and  _238
REMARK   96  A    between atoms: _240  and  _242
REMARK   97  A    between atoms: _242  and  _243
REMARK   98  A    between atoms: _245  and  _247
REMARK   99  A    between atoms: _247  and  _248
REMARK  100  A    between atoms: _247  and  _250
REMARK  101  A    between atoms: _250  and  _251
REMARK  102  A    between atoms: _257  and  _259
REMARK  103  A    between atoms: _259  and  _260
REMARK  104  A    between atoms: _259  and  _262
REMARK  105  A    between atoms: _262  and  _263
REMARK  106  A    between atoms: _268  and  _270
REMARK  107  A    between atoms: _270  and  _271
REMARK  108  A    between atoms: _270  and  _273
REMARK  109  A    between atoms: _273  and  _274
REMARK  110  A    between atoms: _274  and  _275
REMARK  111  A    between atoms: _275  and  _276
REMARK                            x       y       z     vdW  Elec       q    Type
REMARK                         _______ _______ _______ _____ _____    ______ ____
ROOT
ATOM      1  O   HOH     1     -29.704   6.628   7.739  0.00  0.00    +0.000 OA
ENDROOT
TORSDOF 0
REMARK  Name = ../refined-set-2016/3gr2/3gr2_pocket.pdb
REMARK  111 active torsions:
REMARK  status: ('A' for Active; 'I' for Inactive)
REMARK    1  A    between atoms: _1  and  _3
REMARK    2  A    between atoms: _3  and  _4
REMARK    3  A    between atoms: _3  and  _6
REMARK    4  A    between atoms: _6  and  _7
REMARK    5  A    between atoms: _7  and  _8
REMARK    6  A    between atoms: _11  and  _13
REMARK    7  A    between atoms: _13  and  _14
REMARK    8  A    between atoms: _16  and  _18
REMARK    9  A    between atoms: _18  and  _19
REMARK   10  A    between atoms: _18  and  _21
REMARK   11  A    between atoms: _21  and  _22
REMARK   12  A    between atoms: _24  and  _26
REMARK   13  A    between atoms: _26  and  _27
REMARK   14  A    between atoms: _26  and  _29
REMARK   15  A    between atoms: _29  and  _30
REMARK   16  A    between atoms: _30  and  _31
REMARK   17  A    between atoms: _31  and  _32
REMARK   18  A    between atoms: _32  and  _33
REMARK   19  A    between atoms: _37  and  _39
REMARK   20  A    between atoms: _39  and  _40
REMARK   21  A    between atoms: _39  and  _42
REMARK   22  A    between atoms: _42  and  _43
REMARK   23  A    between atoms: _46  and  _48
REMARK   24  A    between atoms: _48  and  _49
REMARK   25  A    between atoms: _48  and  _51
REMARK   26  A    between atoms: _51  and  _52
REMARK   27  A    between atoms: _52  and  _53
REMARK   28  A    between atoms: _58  and  _60
REMARK   29  A    between atoms: _60  and  _61
REMARK   30  A    between atoms: _60  and  _63
REMARK   31  A    between atoms: _66  and  _68
REMARK   32  A    between atoms: _68  and  _69
REMARK   33  A    between atoms: _68  and  _71
REMARK   34  A    between atoms: _71  and  _72
REMARK   35  A    between atoms: _75  and  _77
REMARK   36  A    between atoms: _77  and  _78
REMARK   37  A    between atoms: _77  and  _80
REMARK   38  A    between atoms: _80  and  _81
REMARK   39  A    between atoms: _86  and  _87
REMARK   40  A    between atoms: _89  and  _91
REMARK   41  A    between atoms: _91  and  _92
REMARK   42  A    between atoms: _95  and  _97
REMARK   43  A    between atoms: _97  and  _98
REMARK   44  A    between atoms: _97  and  _100
REMARK   45  A    between atoms: _100  and  _101
REMARK   46  A    between atoms: _106  and  _108
REMARK   47  A    between atoms: _108  and  _109
REMARK   48  A    between atoms: _111  and  _113
REMARK   49  A    between atoms: _113  and  _114
REMARK   50  A    between atoms: _113  and  _116
REMARK   51  A    between atoms: _116  and  _117
REMARK   52  A    between atoms: _117  and  _118
REMARK   53  A    between atoms: _118  and  _119
REMARK   54  A    between atoms: _128  and  _130
REMARK   55  A    between atoms: _130  and  _131
REMARK   56  A    between atoms: _130  and  _133
REMARK   57  A    between atoms: _136  and  _138
REMARK   58  A    between atoms: _138  and  _139
REMARK   59  A    between atoms: _138  and  _141
REMARK   60  A    between atoms: _141  and  _142
REMARK   61  A    between atoms: _147  and  _149
REMARK   62  A    between atoms: _149  and  _150
REMARK   63  A    between atoms: _149  and  _152
REMARK   64  A    between atoms: _155  and  _157
REMARK   65  A    between atoms: _157  and  _158
REMARK   66  A    between atoms: _157  and  _160
REMARK   67  A    between atoms: _160  and  _161
REMARK   68  A    between atoms: _164  and  _165
REMARK   69  A    between atoms: _170  and  _172
REMARK   70  A    between atoms: _172  and  _173
REMARK   71  A    between atoms: _175  and  _177
REMARK   72  A    between atoms: _177  and  _178
REMARK   73  A    between atoms: _181  and  _183
REMARK   74  A    between atoms: _183  and  _184
REMARK   75  A    between atoms: _183  and  _186
REMARK   76  A    between atoms: _186  and  _187
REMARK   77  A    between atoms: _190  and  _192
REMARK   78  A    between atoms: _192  and  _193
REMARK   79  A    between atoms: _196  and  _198
REMARK   80  A    between atoms: _198  and  _199
REMARK   81  A    between atoms: _198  and  _201
REMARK   82  A    between atoms: _201  and  _202
REMARK   83  A    between atoms: _207  and  _208
REMARK   84  A    between atoms: _210  and  _212
REMARK   85  A    between atoms: _212  and  _213
REMARK   86  A    between atoms: _215  and  _217
REMARK   87  A    between atoms: _217  and  _218
REMARK   88  A    between atoms: _220  and  _222
REMARK   89  A    between atoms: _222  and  _223
REMARK   90  A    between atoms: _226  and  _228
REMARK   91  A    between atoms: _228  and  _229
REMARK   92  A    between atoms: _228  and  _231
REMARK   93  A    between atoms: _231  and  _232
REMARK   94  A    between atoms: _235  and  _237
REMARK   95  A    between atoms: _237  and  _238
REMARK   96  A    between atoms: _240  and  _242
REMARK   97  A    between atoms: _242  and  _243
REMARK   98  A    between atoms: _245  and  _247
REMARK   99  A    between atoms: _247  and  _248
REMARK  100  A    between atoms: _247  and  _250
REMARK  101  A    between atoms: _250  and  _251
REMARK  102  A    between atoms: _257  and  _259
REMARK  103  A    between atoms: _259  and  _260
REMARK  104  A    between atoms: _259  and  _262
REMARK  105  A    between atoms: _262  and  _263
REMARK  106  A    between atoms: _268  and  _270
REMARK  107  A    between atoms: _270  and  _271
REMARK  108  A    between atoms: _270  and  _273
REMARK  109  A    between atoms: _273  and  _274
REMARK  110  A    between atoms: _274  and  _275
REMARK  111  A    between atoms: _275  and  _276
REMARK                            x       y       z     vdW  Elec       q    Type
REMARK                         _______ _______ _______ _____ _____    ______ ____
ROOT
ATOM      1  O   HOH     1     -38.686  -2.858   4.804  0.00  0.00    +0.000 OA
ENDROOT
TORSDOF 0
REMARK  Name = ../refined-set-2016/3gr2/3gr2_pocket.pdb
REMARK  111 active torsions:
REMARK  status: ('A' for Active; 'I' for Inactive)
REMARK    1  A    between atoms: _1  and  _3
REMARK    2  A    between atoms: _3  and  _4
REMARK    3  A    between atoms: _3  and  _6
REMARK    4  A    between atoms: _6  and  _7
REMARK    5  A    between atoms: _7  and  _8
REMARK    6  A    between atoms: _11  and  _13
REMARK    7  A    between atoms: _13  and  _14
REMARK    8  A    between atoms: _16  and  _18
REMARK    9  A    between atoms: _18  and  _19
REMARK   10  A    between atoms: _18  and  _21
REMARK   11  A    between atoms: _21  and  _22
REMARK   12  A    between atoms: _24  and  _26
REMARK   13  A    between atoms: _26  and  _27
REMARK   14  A    between atoms: _26  and  _29
REMARK   15  A    between atoms: _29  and  _30
REMARK   16  A    between atoms: _30  and  _31
REMARK   17  A    between atoms: _31  and  _32
REMARK   18  A    between atoms: _32  and  _33
REMARK   19  A    between atoms: _37  and  _39
REMARK   20  A    between atoms: _39  and  _40
REMARK   21  A    between atoms: _39  and  _42
REMARK   22  A    between atoms: _42  and  _43
REMARK   23  A    between atoms: _46  and  _48
REMARK   24  A    between atoms: _48  and  _49
REMARK   25  A    between atoms: _48  and  _51
REMARK   26  A    between atoms: _51  and  _52
REMARK   27  A    between atoms: _52  and  _53
REMARK   28  A    between atoms: _58  and  _60
REMARK   29  A    between atoms: _60  and  _61
REMARK   30  A    between atoms: _60  and  _63
REMARK   31  A    between atoms: _66  and  _68
REMARK   32  A    between atoms: _68  and  _69
REMARK   33  A    between atoms: _68  and  _71
REMARK   34  A    between atoms: _71  and  _72
REMARK   35  A    between atoms: _75  and  _77
REMARK   36  A    between atoms: _77  and  _78
REMARK   37  A    between atoms: _77  and  _80
REMARK   38  A    between atoms: _80  and  _81
REMARK   39  A    between atoms: _86  and  _87
REMARK   40  A    between atoms: _89  and  _91
REMARK   41  A    between atoms: _91  and  _92
REMARK   42  A    between atoms: _95  and  _97
REMARK   43  A    between atoms: _97  and  _98
REMARK   44  A    between atoms: _97  and  _100
REMARK   45  A    between atoms: _100  and  _101
REMARK   46  A    between atoms: _106  and  _108
REMARK   47  A    between atoms: _108  and  _109
REMARK   48  A    between atoms: _111  and  _113
REMARK   49  A    between atoms: _113  and  _114
REMARK   50  A    between atoms: _113  and  _116
REMARK   51  A    between atoms: _116  and  _117
REMARK   52  A    between atoms: _117  and  _118
REMARK   53  A    between atoms: _118  and  _119
REMARK   54  A    between atoms: _128  and  _130
REMARK   55  A    between atoms: _130  and  _131
REMARK   56  A    between atoms: _130  and  _133
REMARK   57  A    between atoms: _136  and  _138
REMARK   58  A    between atoms: _138  and  _139
REMARK   59  A    between atoms: _138  and  _141
REMARK   60  A    between atoms: _141  and  _142
REMARK   61  A    between atoms: _147  and  _149
REMARK   62  A    between atoms: _149  and  _150
REMARK   63  A    between atoms: _149  and  _152
REMARK   64  A    between atoms: _155  and  _157
REMARK   65  A    between atoms: _157  and  _158
REMARK   66  A    between atoms: _157  and  _160
REMARK   67  A    between atoms: _160  and  _161
REMARK   68  A    between atoms: _164  and  _165
REMARK   69  A    between atoms: _170  and  _172
REMARK   70  A    between atoms: _172  and  _173
REMARK   71  A    between atoms: _175  and  _177
REMARK   72  A    between atoms: _177  and  _178
REMARK   73  A    between atoms: _181  and  _183
REMARK   74  A    between atoms: _183  and  _184
REMARK   75  A    between atoms: _183  and  _186
REMARK   76  A    between atoms: _186  and  _187
REMARK   77  A    between atoms: _190  and  _192
REMARK   78  A    between atoms: _192  and  _193
REMARK   79  A    between atoms: _196  and  _198
REMARK   80  A    between atoms: _198  and  _199
REMARK   81  A    between atoms: _198  and  _201
REMARK   82  A    between atoms: _201  and  _202
REMARK   83  A    between atoms: _207  and  _208
REMARK   84  A    between atoms: _210  and  _212
REMARK   85  A    between atoms: _212  and  _213
REMARK   86  A    between atoms: _215  and  _217
REMARK   87  A    between atoms: _217  and  _218
REMARK   88  A    between atoms: _220  and  _222
REMARK   89  A    between atoms: _222  and  _223
REMARK   90  A    between atoms: _226  and  _228
REMARK   91  A    between atoms: _228  and  _229
REMARK   92  A    between atoms: _228  and  _231
REMARK   93  A    between atoms: _231  and  _232
REMARK   94  A    between atoms: _235  and  _237
REMARK   95  A    between atoms: _237  and  _238
REMARK   96  A    between atoms: _240  and  _242
REMARK   97  A    between atoms: _242  and  _243
REMARK   98  A    between atoms: _245  and  _247
REMARK   99  A    between atoms: _247  and  _248
REMARK  100  A    between atoms: _247  and  _250
REMARK  101  A    between atoms: _250  and  _251
REMARK  102  A    between atoms: _257  and  _259
REMARK  103  A    between atoms: _259  and  _260
REMARK  104  A    between atoms: _259  and  _262
REMARK  105  A    between atoms: _262  and  _263
REMARK  106  A    between atoms: _268  and  _270
REMARK  107  A    between atoms: _270  and  _271
REMARK  108  A    between atoms: _270  and  _273
REMARK  109  A    between atoms: _273  and  _274
REMARK  110  A    between atoms: _274  and  _275
REMARK  111  A    between atoms: _275  and  _276
REMARK                            x       y       z     vdW  Elec       q    Type
REMARK                         _______ _______ _______ _____ _____    ______ ____
ROOT
ATOM      1  O   HOH     1     -38.688   6.039  20.840  0.00  0.00    +0.000 OA
ENDROOT
TORSDOF 0
REMARK  Name = ../refined-set-2016/3gr2/3gr2_pocket.pdb
REMARK  111 active torsions:
REMARK  status: ('A' for Active; 'I' for Inactive)
REMARK    1  A    between atoms: _1  and  _3
REMARK    2  A    between atoms: _3  and  _4
REMARK    3  A    between atoms: _3  and  _6
REMARK    4  A    between atoms: _6  and  _7
REMARK    5  A    between atoms: _7  and  _8
REMARK    6  A    between atoms: _11  and  _13
REMARK    7  A    between atoms: _13  and  _14
REMARK    8  A    between atoms: _16  and  _18
REMARK    9  A    between atoms: _18  and  _19
REMARK   10  A    between atoms: _18  and  _21
REMARK   11  A    between atoms: _21  and  _22
REMARK   12  A    between atoms: _24  and  _26
REMARK   13  A    between atoms: _26  and  _27
REMARK   14  A    between atoms: _26  and  _29
REMARK   15  A    between atoms: _29  and  _30
REMARK   16  A    between atoms: _30  and  _31
REMARK   17  A    between atoms: _31  and  _32
REMARK   18  A    between atoms: _32  and  _33
REMARK   19  A    between atoms: _37  and  _39
REMARK   20  A    between atoms: _39  and  _40
REMARK   21  A    between atoms: _39  and  _42
REMARK   22  A    between atoms: _42  and  _43
REMARK   23  A    between atoms: _46  and  _48
REMARK   24  A    between atoms: _48  and  _49
REMARK   25  A    between atoms: _48  and  _51
REMARK   26  A    between atoms: _51  and  _52
REMARK   27  A    between atoms: _52  and  _53
REMARK   28  A    between atoms: _58  and  _60
REMARK   29  A    between atoms: _60  and  _61
REMARK   30  A    between atoms: _60  and  _63
REMARK   31  A    between atoms: _66  and  _68
REMARK   32  A    between atoms: _68  and  _69
REMARK   33  A    between atoms: _68  and  _71
REMARK   34  A    between atoms: _71  and  _72
REMARK   35  A    between atoms: _75  and  _77
REMARK   36  A    between atoms: _77  and  _78
REMARK   37  A    between atoms: _77  and  _80
REMARK   38  A    between atoms: _80  and  _81
REMARK   39  A    between atoms: _86  and  _87
REMARK   40  A    between atoms: _89  and  _91
REMARK   41  A    between atoms: _91  and  _92
REMARK   42  A    between atoms: _95  and  _97
REMARK   43  A    between atoms: _97  and  _98
REMARK   44  A    between atoms: _97  and  _100
REMARK   45  A    between atoms: _100  and  _101
REMARK   46  A    between atoms: _106  and  _108
REMARK   47  A    between atoms: _108  and  _109
REMARK   48  A    between atoms: _111  and  _113
REMARK   49  A    between atoms: _113  and  _114
REMARK   50  A    between atoms: _113  and  _116
REMARK   51  A    between atoms: _116  and  _117
REMARK   52  A    between atoms: _117  and  _118
REMARK   53  A    between atoms: _118  and  _119
REMARK   54  A    between atoms: _128  and  _130
REMARK   55  A    between atoms: _130  and  _131
REMARK   56  A    between atoms: _130  and  _133
REMARK   57  A    between atoms: _136  and  _138
REMARK   58  A    between atoms: _138  and  _139
REMARK   59  A    between atoms: _138  and  _141
REMARK   60  A    between atoms: _141  and  _142
REMARK   61  A    between atoms: _147  and  _149
REMARK   62  A    between atoms: _149  and  _150
REMARK   63  A    between atoms: _149  and  _152
REMARK   64  A    between atoms: _155  and  _157
REMARK   65  A    between atoms: _157  and  _158
REMARK   66  A    between atoms: _157  and  _160
REMARK   67  A    between atoms: _160  and  _161
REMARK   68  A    between atoms: _164  and  _165
REMARK   69  A    between atoms: _170  and  _172
REMARK   70  A    between atoms: _172  and  _173
REMARK   71  A    between atoms: _175  and  _177
REMARK   72  A    between atoms: _177  and  _178
REMARK   73  A    between atoms: _181  and  _183
REMARK   74  A    between atoms: _183  and  _184
REMARK   75  A    between atoms: _183  and  _186
REMARK   76  A    between atoms: _186  and  _187
REMARK   77  A    between atoms: _190  and  _192
REMARK   78  A    between atoms: _192  and  _193
REMARK   79  A    between atoms: _196  and  _198
REMARK   80  A    between atoms: _198  and  _199
REMARK   81  A    between atoms: _198  and  _201
REMARK   82  A    between atoms: _201  and  _202
REMARK   83  A    between atoms: _207  and  _208
REMARK   84  A    between atoms: _210  and  _212
REMARK   85  A    between atoms: _212  and  _213
REMARK   86  A    between atoms: _215  and  _217
REMARK   87  A    between atoms: _217  and  _218
REMARK   88  A    between atoms: _220  and  _222
REMARK   89  A    between atoms: _222  and  _223
REMARK   90  A    between atoms: _226  and  _228
REMARK   91  A    between atoms: _228  and  _229
REMARK   92  A    between atoms: _228  and  _231
REMARK   93  A    between atoms: _231  and  _232
REMARK   94  A    between atoms: _235  and  _237
REMARK   95  A    between atoms: _237  and  _238
REMARK   96  A    between atoms: _240  and  _242
REMARK   97  A    between atoms: _242  and  _243
REMARK   98  A    between atoms: _245  and  _247
REMARK   99  A    between atoms: _247  and  _248
REMARK  100  A    between atoms: _247  and  _250
REMARK  101  A    between atoms: _250  and  _251
REMARK  102  A    between atoms: _257  and  _259
REMARK  103  A    between atoms: _259  and  _260
REMARK  104  A    between atoms: _259  and  _262
REMARK  105  A    between atoms: _262  and  _263
REMARK  106  A    between atoms: _268  and  _270
REMARK  107  A    between atoms: _270  and  _271
REMARK  108  A    between atoms: _270  and  _273
REMARK  109  A    between atoms: _273  and  _274
REMARK  110  A    between atoms: _274  and  _275
REMARK  111  A    between atoms: _275  and  _276
REMARK                            x       y       z     vdW  Elec       q    Type
REMARK                         _______ _______ _______ _____ _____    ______ ____
ROOT
ATOM      1  O   HOH     1     -38.813   7.233  17.595  0.00  0.00    +0.000 OA
ENDROOT
TORSDOF 0
REMARK  Name = ../refined-set-2016/3gr2/3gr2_pocket.pdb
REMARK  111 active torsions:
REMARK  status: ('A' for Active; 'I' for Inactive)
REMARK    1  A    between atoms: _1  and  _3
REMARK    2  A    between atoms: _3  and  _4
REMARK    3  A    between atoms: _3  and  _6
REMARK    4  A    between atoms: _6  and  _7
REMARK    5  A    between atoms: _7  and  _8
REMARK    6  A    between atoms: _11  and  _13
REMARK    7  A    between atoms: _13  and  _14
REMARK    8  A    between atoms: _16  and  _18
REMARK    9  A    between atoms: _18  and  _19
REMARK   10  A    between atoms: _18  and  _21
REMARK   11  A    between atoms: _21  and  _22
REMARK   12  A    between atoms: _24  and  _26
REMARK   13  A    between atoms: _26  and  _27
REMARK   14  A    between atoms: _26  and  _29
REMARK   15  A    between atoms: _29  and  _30
REMARK   16  A    between atoms: _30  and  _31
REMARK   17  A    between atoms: _31  and  _32
REMARK   18  A    between atoms: _32  and  _33
REMARK   19  A    between atoms: _37  and  _39
REMARK   20  A    between atoms: _39  and  _40
REMARK   21  A    between atoms: _39  and  _42
REMARK   22  A    between atoms: _42  and  _43
REMARK   23  A    between atoms: _46  and  _48
REMARK   24  A    between atoms: _48  and  _49
REMARK   25  A    between atoms: _48  and  _51
REMARK   26  A    between atoms: _51  and  _52
REMARK   27  A    between atoms: _52  and  _53
REMARK   28  A    between atoms: _58  and  _60
REMARK   29  A    between atoms: _60  and  _61
REMARK   30  A    between atoms: _60  and  _63
REMARK   31  A    between atoms: _66  and  _68
REMARK   32  A    between atoms: _68  and  _69
REMARK   33  A    between atoms: _68  and  _71
REMARK   34  A    between atoms: _71  and  _72
REMARK   35  A    between atoms: _75  and  _77
REMARK   36  A    between atoms: _77  and  _78
REMARK   37  A    between atoms: _77  and  _80
REMARK   38  A    between atoms: _80  and  _81
REMARK   39  A    between atoms: _86  and  _87
REMARK   40  A    between atoms: _89  and  _91
REMARK   41  A    between atoms: _91  and  _92
REMARK   42  A    between atoms: _95  and  _97
REMARK   43  A    between atoms: _97  and  _98
REMARK   44  A    between atoms: _97  and  _100
REMARK   45  A    between atoms: _100  and  _101
REMARK   46  A    between atoms: _106  and  _108
REMARK   47  A    between atoms: _108  and  _109
REMARK   48  A    between atoms: _111  and  _113
REMARK   49  A    between atoms: _113  and  _114
REMARK   50  A    between atoms: _113  and  _116
REMARK   51  A    between atoms: _116  and  _117
REMARK   52  A    between atoms: _117  and  _118
REMARK   53  A    between atoms: _118  and  _119
REMARK   54  A    between atoms: _128  and  _130
REMARK   55  A    between atoms: _130  and  _131
REMARK   56  A    between atoms: _130  and  _133
REMARK   57  A    between atoms: _136  and  _138
REMARK   58  A    between atoms: _138  and  _139
REMARK   59  A    between atoms: _138  and  _141
REMARK   60  A    between atoms: _141  and  _142
REMARK   61  A    between atoms: _147  and  _149
REMARK   62  A    between atoms: _149  and  _150
REMARK   63  A    between atoms: _149  and  _152
REMARK   64  A    between atoms: _155  and  _157
REMARK   65  A    between atoms: _157  and  _158
REMARK   66  A    between atoms: _157  and  _160
REMARK   67  A    between atoms: _160  and  _161
REMARK   68  A    between atoms: _164  and  _165
REMARK   69  A    between atoms: _170  and  _172
REMARK   70  A    between atoms: _172  and  _173
REMARK   71  A    between atoms: _175  and  _177
REMARK   72  A    between atoms: _177  and  _178
REMARK   73  A    between atoms: _181  and  _183
REMARK   74  A    between atoms: _183  and  _184
REMARK   75  A    between atoms: _183  and  _186
REMARK   76  A    between atoms: _186  and  _187
REMARK   77  A    between atoms: _190  and  _192
REMARK   78  A    between atoms: _192  and  _193
REMARK   79  A    between atoms: _196  and  _198
REMARK   80  A    between atoms: _198  and  _199
REMARK   81  A    between atoms: _198  and  _201
REMARK   82  A    between atoms: _201  and  _202
REMARK   83  A    between atoms: _207  and  _208
REMARK   84  A    between atoms: _210  and  _212
REMARK   85  A    between atoms: _212  and  _213
REMARK   86  A    between atoms: _215  and  _217
REMARK   87  A    between atoms: _217  and  _218
REMARK   88  A    between atoms: _220  and  _222
REMARK   89  A    between atoms: _222  and  _223
REMARK   90  A    between atoms: _226  and  _228
REMARK   91  A    between atoms: _228  and  _229
REMARK   92  A    between atoms: _228  and  _231
REMARK   93  A    between atoms: _231  and  _232
REMARK   94  A    between atoms: _235  and  _237
REMARK   95  A    between atoms: _237  and  _238
REMARK   96  A    between atoms: _240  and  _242
REMARK   97  A    between atoms: _242  and  _243
REMARK   98  A    between atoms: _245  and  _247
REMARK   99  A    between atoms: _247  and  _248
REMARK  100  A    between atoms: _247  and  _250
REMARK  101  A    between atoms: _250  and  _251
REMARK  102  A    between atoms: _257  and  _259
REMARK  103  A    between atoms: _259  and  _260
REMARK  104  A    between atoms: _259  and  _262
REMARK  105  A    between atoms: _262  and  _263
REMARK  106  A    between atoms: _268  and  _270
REMARK  107  A    between atoms: _270  and  _271
REMARK  108  A    between atoms: _270  and  _273
REMARK  109  A    between atoms: _273  and  _274
REMARK  110  A    between atoms: _274  and  _275
REMARK  111  A    between atoms: _275  and  _276
REMARK                            x       y       z     vdW  Elec       q    Type
REMARK                         _______ _______ _______ _____ _____    ______ ____
ROOT
ATOM      1  O   HOH     1     -41.855   7.445  15.070  0.00  0.00    +0.000 OA
ENDROOT
TORSDOF 0
