REMARK  Name = ../refined-set-2016/4asd/4asd_pocket.pdb
REMARK  253 active torsions:
REMARK  status: ('A' for Active; 'I' for Inactive)
REMARK    1  A    between atoms: _1  and  _3
REMARK    2  A    between atoms: _3  and  _4
REMARK    3  A    between atoms: _3  and  _6
REMARK    4  A    between atoms: _6  and  _7
REMARK    5  A    between atoms: _10  and  _12
REMARK    6  A    between atoms: _12  and  _13
REMARK    7  A    between atoms: _12  and  _15
REMARK    8  A    between atoms: _15  and  _16
REMARK    9  A    between atoms: _19  and  _21
REMARK   10  A    between atoms: _21  and  _22
REMARK   11  A    between atoms: _21  and  _24
REMARK   12  A    between atoms: _24  and  _25
REMARK   13  A    between atoms: _25  and  _26
REMARK   14  A    between atoms: _26  and  _27
REMARK   15  A    between atoms: _27  and  _28
REMARK   16  A    between atoms: _33  and  _34
REMARK   17  A    between atoms: _39  and  _41
REMARK   18  A    between atoms: _41  and  _42
REMARK   19  A    between atoms: _41  and  _44
REMARK   20  A    between atoms: _44  and  _45
REMARK   21  A    between atoms: _48  and  _50
REMARK   22  A    between atoms: _50  and  _51
REMARK   23  A    between atoms: _53  and  _55
REMARK   24  A    between atoms: _55  and  _56
REMARK   25  A    between atoms: _55  and  _58
REMARK   26  A    between atoms: _58  and  _59
REMARK   27  A    between atoms: _59  and  _60
REMARK   28  A    between atoms: _65  and  _67
REMARK   29  A    between atoms: _67  and  _68
REMARK   30  A    between atoms: _67  and  _70
REMARK   31  A    between atoms: _73  and  _75
REMARK   32  A    between atoms: _75  and  _76
REMARK   33  A    between atoms: _75  and  _78
REMARK   34  A    between atoms: _78  and  _79
REMARK   35  A    between atoms: _82  and  _84
REMARK   36  A    between atoms: _84  and  _85
REMARK   37  A    between atoms: _84  and  _87
REMARK   38  A    between atoms: _87  and  _88
REMARK   39  A    between atoms: _88  and  _89
REMARK   40  A    between atoms: _92  and  _94
REMARK   41  A    between atoms: _94  and  _95
REMARK   42  A    between atoms: _94  and  _97
REMARK   43  A    between atoms: _97  and  _98
REMARK   44  A    between atoms: _101  and  _103
REMARK   45  A    between atoms: _103  and  _104
REMARK   46  A    between atoms: _103  and  _106
REMARK   47  A    between atoms: _109  and  _111
REMARK   48  A    between atoms: _111  and  _112
REMARK   49  A    between atoms: _115  and  _117
REMARK   50  A    between atoms: _117  and  _118
REMARK   51  A    between atoms: _117  and  _120
REMARK   52  A    between atoms: _123  and  _125
REMARK   53  A    between atoms: _125  and  _126
REMARK   54  A    between atoms: _125  and  _128
REMARK   55  A    between atoms: _128  and  _129
REMARK   56  A    between atoms: _129  and  _130
REMARK   57  A    between atoms: _130  and  _131
REMARK   58  A    between atoms: _131  and  _132
REMARK   59  A    between atoms: _136  and  _138
REMARK   60  A    between atoms: _138  and  _139
REMARK   61  A    between atoms: _138  and  _141
REMARK   62  A    between atoms: _141  and  _142
REMARK   63  A    between atoms: _142  and  _143
REMARK   64  A    between atoms: _145  and  _147
REMARK   65  A    between atoms: _147  and  _148
REMARK   66  A    between atoms: _147  and  _150
REMARK   67  A    between atoms: _150  and  _151
REMARK   68  A    between atoms: _154  and  _156
REMARK   69  A    between atoms: _156  and  _157
REMARK   70  A    between atoms: _156  and  _159
REMARK   71  A    between atoms: _159  and  _160
REMARK   72  A    between atoms: _162  and  _164
REMARK   73  A    between atoms: _164  and  _165
REMARK   74  A    between atoms: _164  and  _167
REMARK   75  A    between atoms: _167  and  _168
REMARK   76  A    between atoms: _168  and  _169
REMARK   77  A    between atoms: _172  and  _174
REMARK   78  A    between atoms: _174  and  _175
REMARK   79  A    between atoms: _174  and  _177
REMARK   80  A    between atoms: _177  and  _178
REMARK   81  A    between atoms: _181  and  _183
REMARK   82  A    between atoms: _183  and  _184
REMARK   83  A    between atoms: _183  and  _186
REMARK   84  A    between atoms: _186  and  _187
REMARK   85  A    between atoms: _190  and  _192
REMARK   86  A    between atoms: _192  and  _193
REMARK   87  A    between atoms: _192  and  _195
REMARK   88  A    between atoms: _195  and  _196
REMARK   89  A    between atoms: _199  and  _201
REMARK   90  A    between atoms: _201  and  _202
REMARK   91  A    between atoms: _201  and  _204
REMARK   92  A    between atoms: _204  and  _205
REMARK   93  A    between atoms: _208  and  _210
REMARK   94  A    between atoms: _210  and  _211
REMARK   95  A    between atoms: _213  and  _215
REMARK   96  A    between atoms: _215  and  _216
REMARK   97  A    between atoms: _215  and  _218
REMARK   98  A    between atoms: _218  and  _219
REMARK   99  A    between atoms: _224  and  _226
REMARK  100  A    between atoms: _226  and  _227
REMARK  101  A    between atoms: _226  and  _229
REMARK  102  A    between atoms: _232  and  _234
REMARK  103  A    between atoms: _234  and  _235
REMARK  104  A    between atoms: _234  and  _237
REMARK  105  A    between atoms: _240  and  _242
REMARK  106  A    between atoms: _242  and  _243
REMARK  107  A    between atoms: _242  and  _245
REMARK  108  A    between atoms: _245  and  _246
REMARK  109  A    between atoms: _251  and  _253
REMARK  110  A    between atoms: _253  and  _254
REMARK  111  A    between atoms: _253  and  _256
REMARK  112  A    between atoms: _256  and  _257
REMARK  113  A    between atoms: _260  and  _262
REMARK  114  A    between atoms: _262  and  _263
REMARK  115  A    between atoms: _262  and  _265
REMARK  116  A    between atoms: _268  and  _270
REMARK  117  A    between atoms: _270  and  _271
REMARK  118  A    between atoms: _270  and  _273
REMARK  119  A    between atoms: _273  and  _274
REMARK  120  A    between atoms: _277  and  _279
REMARK  121  A    between atoms: _279  and  _280
REMARK  122  A    between atoms: _279  and  _282
REMARK  123  A    between atoms: _285  and  _287
REMARK  124  A    between atoms: _287  and  _288
REMARK  125  A    between atoms: _287  and  _290
REMARK  126  A    between atoms: _290  and  _291
REMARK  127  A    between atoms: _291  and  _292
REMARK  128  A    between atoms: _295  and  _297
REMARK  129  A    between atoms: _297  and  _298
REMARK  130  A    between atoms: _297  and  _300
REMARK  131  A    between atoms: _300  and  _301
REMARK  132  A    between atoms: _307  and  _309
REMARK  133  A    between atoms: _309  and  _310
REMARK  134  A    between atoms: _309  and  _312
REMARK  135  A    between atoms: _314  and  _316
REMARK  136  A    between atoms: _316  and  _317
REMARK  137  A    between atoms: _316  and  _319
REMARK  138  A    between atoms: _319  and  _320
REMARK  139  A    between atoms: _320  and  _321
REMARK  140  A    between atoms: _321  and  _322
REMARK  141  A    between atoms: _322  and  _323
REMARK  142  A    between atoms: _327  and  _329
REMARK  143  A    between atoms: _329  and  _330
REMARK  144  A    between atoms: _329  and  _332
REMARK  145  A    between atoms: _332  and  _333
REMARK  146  A    between atoms: _339  and  _341
REMARK  147  A    between atoms: _341  and  _342
REMARK  148  A    between atoms: _344  and  _346
REMARK  149  A    between atoms: _346  and  _347
REMARK  150  A    between atoms: _346  and  _349
REMARK  151  A    between atoms: _349  and  _350
REMARK  152  A    between atoms: _355  and  _357
REMARK  153  A    between atoms: _357  and  _358
REMARK  154  A    between atoms: _360  and  _362
REMARK  155  A    between atoms: _362  and  _363
REMARK  156  A    between atoms: _362  and  _365
REMARK  157  A    between atoms: _365  and  _366
REMARK  158  A    between atoms: _366  and  _367
REMARK  159  A    between atoms: _369  and  _371
REMARK  160  A    between atoms: _371  and  _372
REMARK  161  A    between atoms: _371  and  _374
REMARK  162  A    between atoms: _374  and  _375
REMARK  163  A    between atoms: _381  and  _383
REMARK  164  A    between atoms: _383  and  _384
REMARK  165  A    between atoms: _383  and  _386
REMARK  166  A    between atoms: _386  and  _387
REMARK  167  A    between atoms: _390  and  _392
REMARK  168  A    between atoms: _392  and  _393
REMARK  169  A    between atoms: _392  and  _395
REMARK  170  A    between atoms: _397  and  _399
REMARK  171  A    between atoms: _399  and  _400
REMARK  172  A    between atoms: _399  and  _402
REMARK  173  A    between atoms: _402  and  _403
REMARK  174  A    between atoms: _406  and  _408
REMARK  175  A    between atoms: _408  and  _409
REMARK  176  A    between atoms: _408  and  _411
REMARK  177  A    between atoms: _411  and  _412
REMARK  178  A    between atoms: _417  and  _419
REMARK  179  A    between atoms: _419  and  _420
REMARK  180  A    between atoms: _419  and  _422
REMARK  181  A    between atoms: _422  and  _423
REMARK  182  A    between atoms: _423  and  _424
REMARK  183  A    between atoms: _424  and  _425
REMARK  184  A    between atoms: _434  and  _436
REMARK  185  A    between atoms: _436  and  _437
REMARK  186  A    between atoms: _436  and  _439
REMARK  187  A    between atoms: _439  and  _440
REMARK  188  A    between atoms: _443  and  _445
REMARK  189  A    between atoms: _445  and  _446
REMARK  190  A    between atoms: _445  and  _448
REMARK  191  A    between atoms: _448  and  _449
REMARK  192  A    between atoms: _452  and  _454
REMARK  193  A    between atoms: _454  and  _455
REMARK  194  A    between atoms: _454  and  _457
REMARK  195  A    between atoms: _457  and  _458
REMARK  196  A    between atoms: _458  and  _459
REMARK  197  A    between atoms: _459  and  _460
REMARK  198  A    between atoms: _469  and  _471
REMARK  199  A    between atoms: _471  and  _472
REMARK  200  A    between atoms: _471  and  _474
REMARK  201  A    between atoms: _474  and  _475
REMARK  202  A    between atoms: _480  and  _482
REMARK  203  A    between atoms: _482  and  _483
REMARK  204  A    between atoms: _482  and  _485
REMARK  205  A    between atoms: _485  and  _486
REMARK  206  A    between atoms: _489  and  _491
REMARK  207  A    between atoms: _491  and  _492
REMARK  208  A    between atoms: _491  and  _494
REMARK  209  A    between atoms: _494  and  _495
REMARK  210  A    between atoms: _498  and  _500
REMARK  211  A    between atoms: _500  and  _501
REMARK  212  A    between atoms: _500  and  _503
REMARK  213  A    between atoms: _503  and  _504
REMARK  214  A    between atoms: _507  and  _509
REMARK  215  A    between atoms: _509  and  _510
REMARK  216  A    between atoms: _509  and  _512
REMARK  217  A    between atoms: _512  and  _513
REMARK  218  A    between atoms: _515  and  _517
REMARK  219  A    between atoms: _517  and  _518
REMARK  220  A    between atoms: _517  and  _520
REMARK  221  A    between atoms: _520  and  _521
REMARK  222  A    between atoms: _521  and  _522
REMARK  223  A    between atoms: _522  and  _523
REMARK  224  A    between atoms: _523  and  _524
REMARK  225  A    between atoms: _528  and  _530
REMARK  226  A    between atoms: _530  and  _531
REMARK  227  A    between atoms: _530  and  _533
REMARK  228  A    between atoms: _533  and  _534
REMARK  229  A    between atoms: _537  and  _539
REMARK  230  A    between atoms: _539  and  _540
REMARK  231  A    between atoms: _539  and  _542
REMARK  232  A    between atoms: _544  and  _546
REMARK  233  A    between atoms: _546  and  _547
REMARK  234  A    between atoms: _546  and  _549
REMARK  235  A    between atoms: _549  and  _550
REMARK  236  A    between atoms: _553  and  _555
REMARK  237  A    between atoms: _555  and  _556
REMARK  238  A    between atoms: _555  and  _558
REMARK  239  A    between atoms: _558  and  _559
REMARK  240  A    between atoms: _565  and  _567
REMARK  241  A    between atoms: _567  and  _568
REMARK  242  A    between atoms: _570  and  _572
REMARK  243  A    between atoms: _572  and  _573
REMARK  244  A    between atoms: _572  and  _575
REMARK  245  A    between atoms: _575  and  _576
REMARK  246  A    between atoms: _579  and  _581
REMARK  247  A    between atoms: _581  and  _582
REMARK  248  A    between atoms: _585  and  _587
REMARK  249  A    between atoms: _587  and  _588
REMARK  250  A    between atoms: _587  and  _590
REMARK  251  A    between atoms: _590  and  _591
REMARK  252  A    between atoms: _591  and  _592
REMARK  253  A    between atoms: _592  and  _593
REMARK                            x       y       z     vdW  Elec       q    Type
REMARK                         _______ _______ _______ _____ _____    ______ ____
ROOT
ATOM      1  C   LEU A   1     -36.488  -7.196  -1.402  0.00  0.00    +0.238 C 
ATOM      2  O   LEU A   1     -35.380  -6.684  -1.218  0.00  0.00    -0.274 OA
ATOM      3  N   ASP A   2     -36.713  -8.122  -2.322  0.00  0.00    -0.298 N 
ATOM      4  H   ASP A   2     -37.696  -8.394  -2.526  0.00  0.00    +0.150 HD
ENDROOT
BRANCH   1   5
ATOM      5  CA  LEU A   1     -37.673  -6.789  -0.548  0.00  0.00    +0.145 C 
BRANCH   5   6
ATOM      6  N   LEU A   1     -37.168  -6.731   0.815  0.00  0.00    -0.238 NA
ATOM      7  H   LEU A   1     -37.260  -5.843   1.349  0.00  0.00    +0.142 HD
ENDBRANCH   5   6
BRANCH   5   8
ATOM      8  CB  LEU A   1     -38.176  -5.408  -0.995  0.00  0.00    +0.026 C 
BRANCH   8   9
ATOM      9  CG  LEU A   1     -39.631  -4.943  -0.817  0.00  0.00    +0.002 C 
ATOM     10  CD2 LEU A   1     -40.079  -4.901   0.648  0.00  0.00    +0.000 C 
ATOM     11  CD1 LEU A   1     -40.585  -5.794  -1.657  0.00  0.00    +0.000 C 
ENDBRANCH   8   9
ENDBRANCH   5   8
ENDBRANCH   1   5
BRANCH   3  12
ATOM     12  CA  ASP A   2     -35.630  -8.780  -3.066  0.00  0.00    +0.148 C 
BRANCH  12  13
ATOM     13  C   ASP A   2     -35.676 -10.266  -2.790  0.00  0.00    +0.227 C 
ATOM     14  O   ASP A   2     -35.365 -11.068  -3.667  0.00  0.00    -0.286 OA
ENDBRANCH  12  13
BRANCH  12  15
ATOM     15  CB  ASP A   2     -34.254  -8.146  -2.790  0.00  0.00    +0.142 C 
BRANCH  15  16
ATOM     16  CG  ASP A   2     -33.112  -9.158  -2.737  0.00  0.00    +0.367 C 
ATOM     17  OD2 ASP A   2     -32.951  -9.837  -1.692  0.00  0.00    -0.246 OA
ATOM     18  OD1 ASP A   2     -32.348  -9.238  -3.726  0.00  0.00    -0.246 OA
ENDBRANCH  15  16
ENDBRANCH  12  15
ENDBRANCH   3  12
TORSDOF 8
REMARK  Name = ../refined-set-2016/4asd/4asd_pocket.pdb
REMARK  253 active torsions:
REMARK  status: ('A' for Active; 'I' for Inactive)
REMARK    1  A    between atoms: _1  and  _3
REMARK    2  A    between atoms: _3  and  _4
REMARK    3  A    between atoms: _3  and  _6
REMARK    4  A    between atoms: _6  and  _7
REMARK    5  A    between atoms: _10  and  _12
REMARK    6  A    between atoms: _12  and  _13
REMARK    7  A    between atoms: _12  and  _15
REMARK    8  A    between atoms: _15  and  _16
REMARK    9  A    between atoms: _19  and  _21
REMARK   10  A    between atoms: _21  and  _22
REMARK   11  A    between atoms: _21  and  _24
REMARK   12  A    between atoms: _24  and  _25
REMARK   13  A    between atoms: _25  and  _26
REMARK   14  A    between atoms: _26  and  _27
REMARK   15  A    between atoms: _27  and  _28
REMARK   16  A    between atoms: _33  and  _34
REMARK   17  A    between atoms: _39  and  _41
REMARK   18  A    between atoms: _41  and  _42
REMARK   19  A    between atoms: _41  and  _44
REMARK   20  A    between atoms: _44  and  _45
REMARK   21  A    between atoms: _48  and  _50
REMARK   22  A    between atoms: _50  and  _51
REMARK   23  A    between atoms: _53  and  _55
REMARK   24  A    between atoms: _55  and  _56
REMARK   25  A    between atoms: _55  and  _58
REMARK   26  A    between atoms: _58  and  _59
REMARK   27  A    between atoms: _59  and  _60
REMARK   28  A    between atoms: _65  and  _67
REMARK   29  A    between atoms: _67  and  _68
REMARK   30  A    between atoms: _67  and  _70
REMARK   31  A    between atoms: _73  and  _75
REMARK   32  A    between atoms: _75  and  _76
REMARK   33  A    between atoms: _75  and  _78
REMARK   34  A    between atoms: _78  and  _79
REMARK   35  A    between atoms: _82  and  _84
REMARK   36  A    between atoms: _84  and  _85
REMARK   37  A    between atoms: _84  and  _87
REMARK   38  A    between atoms: _87  and  _88
REMARK   39  A    between atoms: _88  and  _89
REMARK   40  A    between atoms: _92  and  _94
REMARK   41  A    between atoms: _94  and  _95
REMARK   42  A    between atoms: _94  and  _97
REMARK   43  A    between atoms: _97  and  _98
REMARK   44  A    between atoms: _101  and  _103
REMARK   45  A    between atoms: _103  and  _104
REMARK   46  A    between atoms: _103  and  _106
REMARK   47  A    between atoms: _109  and  _111
REMARK   48  A    between atoms: _111  and  _112
REMARK   49  A    between atoms: _115  and  _117
REMARK   50  A    between atoms: _117  and  _118
REMARK   51  A    between atoms: _117  and  _120
REMARK   52  A    between atoms: _123  and  _125
REMARK   53  A    between atoms: _125  and  _126
REMARK   54  A    between atoms: _125  and  _128
REMARK   55  A    between atoms: _128  and  _129
REMARK   56  A    between atoms: _129  and  _130
REMARK   57  A    between atoms: _130  and  _131
REMARK   58  A    between atoms: _131  and  _132
REMARK   59  A    between atoms: _136  and  _138
REMARK   60  A    between atoms: _138  and  _139
REMARK   61  A    between atoms: _138  and  _141
REMARK   62  A    between atoms: _141  and  _142
REMARK   63  A    between atoms: _142  and  _143
REMARK   64  A    between atoms: _145  and  _147
REMARK   65  A    between atoms: _147  and  _148
REMARK   66  A    between atoms: _147  and  _150
REMARK   67  A    between atoms: _150  and  _151
REMARK   68  A    between atoms: _154  and  _156
REMARK   69  A    between atoms: _156  and  _157
REMARK   70  A    between atoms: _156  and  _159
REMARK   71  A    between atoms: _159  and  _160
REMARK   72  A    between atoms: _162  and  _164
REMARK   73  A    between atoms: _164  and  _165
REMARK   74  A    between atoms: _164  and  _167
REMARK   75  A    between atoms: _167  and  _168
REMARK   76  A    between atoms: _168  and  _169
REMARK   77  A    between atoms: _172  and  _174
REMARK   78  A    between atoms: _174  and  _175
REMARK   79  A    between atoms: _174  and  _177
REMARK   80  A    between atoms: _177  and  _178
REMARK   81  A    between atoms: _181  and  _183
REMARK   82  A    between atoms: _183  and  _184
REMARK   83  A    between atoms: _183  and  _186
REMARK   84  A    between atoms: _186  and  _187
REMARK   85  A    between atoms: _190  and  _192
REMARK   86  A    between atoms: _192  and  _193
REMARK   87  A    between atoms: _192  and  _195
REMARK   88  A    between atoms: _195  and  _196
REMARK   89  A    between atoms: _199  and  _201
REMARK   90  A    between atoms: _201  and  _202
REMARK   91  A    between atoms: _201  and  _204
REMARK   92  A    between atoms: _204  and  _205
REMARK   93  A    between atoms: _208  and  _210
REMARK   94  A    between atoms: _210  and  _211
REMARK   95  A    between atoms: _213  and  _215
REMARK   96  A    between atoms: _215  and  _216
REMARK   97  A    between atoms: _215  and  _218
REMARK   98  A    between atoms: _218  and  _219
REMARK   99  A    between atoms: _224  and  _226
REMARK  100  A    between atoms: _226  and  _227
REMARK  101  A    between atoms: _226  and  _229
REMARK  102  A    between atoms: _232  and  _234
REMARK  103  A    between atoms: _234  and  _235
REMARK  104  A    between atoms: _234  and  _237
REMARK  105  A    between atoms: _240  and  _242
REMARK  106  A    between atoms: _242  and  _243
REMARK  107  A    between atoms: _242  and  _245
REMARK  108  A    between atoms: _245  and  _246
REMARK  109  A    between atoms: _251  and  _253
REMARK  110  A    between atoms: _253  and  _254
REMARK  111  A    between atoms: _253  and  _256
REMARK  112  A    between atoms: _256  and  _257
REMARK  113  A    between atoms: _260  and  _262
REMARK  114  A    between atoms: _262  and  _263
REMARK  115  A    between atoms: _262  and  _265
REMARK  116  A    between atoms: _268  and  _270
REMARK  117  A    between atoms: _270  and  _271
REMARK  118  A    between atoms: _270  and  _273
REMARK  119  A    between atoms: _273  and  _274
REMARK  120  A    between atoms: _277  and  _279
REMARK  121  A    between atoms: _279  and  _280
REMARK  122  A    between atoms: _279  and  _282
REMARK  123  A    between atoms: _285  and  _287
REMARK  124  A    between atoms: _287  and  _288
REMARK  125  A    between atoms: _287  and  _290
REMARK  126  A    between atoms: _290  and  _291
REMARK  127  A    between atoms: _291  and  _292
REMARK  128  A    between atoms: _295  and  _297
REMARK  129  A    between atoms: _297  and  _298
REMARK  130  A    between atoms: _297  and  _300
REMARK  131  A    between atoms: _300  and  _301
REMARK  132  A    between atoms: _307  and  _309
REMARK  133  A    between atoms: _309  and  _310
REMARK  134  A    between atoms: _309  and  _312
REMARK  135  A    between atoms: _314  and  _316
REMARK  136  A    between atoms: _316  and  _317
REMARK  137  A    between atoms: _316  and  _319
REMARK  138  A    between atoms: _319  and  _320
REMARK  139  A    between atoms: _320  and  _321
REMARK  140  A    between atoms: _321  and  _322
REMARK  141  A    between atoms: _322  and  _323
REMARK  142  A    between atoms: _327  and  _329
REMARK  143  A    between atoms: _329  and  _330
REMARK  144  A    between atoms: _329  and  _332
REMARK  145  A    between atoms: _332  and  _333
REMARK  146  A    between atoms: _339  and  _341
REMARK  147  A    between atoms: _341  and  _342
REMARK  148  A    between atoms: _344  and  _346
REMARK  149  A    between atoms: _346  and  _347
REMARK  150  A    between atoms: _346  and  _349
REMARK  151  A    between atoms: _349  and  _350
REMARK  152  A    between atoms: _355  and  _357
REMARK  153  A    between atoms: _357  and  _358
REMARK  154  A    between atoms: _360  and  _362
REMARK  155  A    between atoms: _362  and  _363
REMARK  156  A    between atoms: _362  and  _365
REMARK  157  A    between atoms: _365  and  _366
REMARK  158  A    between atoms: _366  and  _367
REMARK  159  A    between atoms: _369  and  _371
REMARK  160  A    between atoms: _371  and  _372
REMARK  161  A    between atoms: _371  and  _374
REMARK  162  A    between atoms: _374  and  _375
REMARK  163  A    between atoms: _381  and  _383
REMARK  164  A    between atoms: _383  and  _384
REMARK  165  A    between atoms: _383  and  _386
REMARK  166  A    between atoms: _386  and  _387
REMARK  167  A    between atoms: _390  and  _392
REMARK  168  A    between atoms: _392  and  _393
REMARK  169  A    between atoms: _392  and  _395
REMARK  170  A    between atoms: _397  and  _399
REMARK  171  A    between atoms: _399  and  _400
REMARK  172  A    between atoms: _399  and  _402
REMARK  173  A    between atoms: _402  and  _403
REMARK  174  A    between atoms: _406  and  _408
REMARK  175  A    between atoms: _408  and  _409
REMARK  176  A    between atoms: _408  and  _411
REMARK  177  A    between atoms: _411  and  _412
REMARK  178  A    between atoms: _417  and  _419
REMARK  179  A    between atoms: _419  and  _420
REMARK  180  A    between atoms: _419  and  _422
REMARK  181  A    between atoms: _422  and  _423
REMARK  182  A    between atoms: _423  and  _424
REMARK  183  A    between atoms: _424  and  _425
REMARK  184  A    between atoms: _434  and  _436
REMARK  185  A    between atoms: _436  and  _437
REMARK  186  A    between atoms: _436  and  _439
REMARK  187  A    between atoms: _439  and  _440
REMARK  188  A    between atoms: _443  and  _445
REMARK  189  A    between atoms: _445  and  _446
REMARK  190  A    between atoms: _445  and  _448
REMARK  191  A    between atoms: _448  and  _449
REMARK  192  A    between atoms: _452  and  _454
REMARK  193  A    between atoms: _454  and  _455
REMARK  194  A    between atoms: _454  and  _457
REMARK  195  A    between atoms: _457  and  _458
REMARK  196  A    between atoms: _458  and  _459
REMARK  197  A    between atoms: _459  and  _460
REMARK  198  A    between atoms: _469  and  _471
REMARK  199  A    between atoms: _471  and  _472
REMARK  200  A    between atoms: _471  and  _474
REMARK  201  A    between atoms: _474  and  _475
REMARK  202  A    between atoms: _480  and  _482
REMARK  203  A    between atoms: _482  and  _483
REMARK  204  A    between atoms: _482  and  _485
REMARK  205  A    between atoms: _485  and  _486
REMARK  206  A    between atoms: _489  and  _491
REMARK  207  A    between atoms: _491  and  _492
REMARK  208  A    between atoms: _491  and  _494
REMARK  209  A    between atoms: _494  and  _495
REMARK  210  A    between atoms: _498  and  _500
REMARK  211  A    between atoms: _500  and  _501
REMARK  212  A    between atoms: _500  and  _503
REMARK  213  A    between atoms: _503  and  _504
REMARK  214  A    between atoms: _507  and  _509
REMARK  215  A    between atoms: _509  and  _510
REMARK  216  A    between atoms: _509  and  _512
REMARK  217  A    between atoms: _512  and  _513
REMARK  218  A    between atoms: _515  and  _517
REMARK  219  A    between atoms: _517  and  _518
REMARK  220  A    between atoms: _517  and  _520
REMARK  221  A    between atoms: _520  and  _521
REMARK  222  A    between atoms: _521  and  _522
REMARK  223  A    between atoms: _522  and  _523
REMARK  224  A    between atoms: _523  and  _524
REMARK  225  A    between atoms: _528  and  _530
REMARK  226  A    between atoms: _530  and  _531
REMARK  227  A    between atoms: _530  and  _533
REMARK  228  A    between atoms: _533  and  _534
REMARK  229  A    between atoms: _537  and  _539
REMARK  230  A    between atoms: _539  and  _540
REMARK  231  A    between atoms: _539  and  _542
REMARK  232  A    between atoms: _544  and  _546
REMARK  233  A    between atoms: _546  and  _547
REMARK  234  A    between atoms: _546  and  _549
REMARK  235  A    between atoms: _549  and  _550
REMARK  236  A    between atoms: _553  and  _555
REMARK  237  A    between atoms: _555  and  _556
REMARK  238  A    between atoms: _555  and  _558
REMARK  239  A    between atoms: _558  and  _559
REMARK  240  A    between atoms: _565  and  _567
REMARK  241  A    between atoms: _567  and  _568
REMARK  242  A    between atoms: _570  and  _572
REMARK  243  A    between atoms: _572  and  _573
REMARK  244  A    between atoms: _572  and  _575
REMARK  245  A    between atoms: _575  and  _576
REMARK  246  A    between atoms: _579  and  _581
REMARK  247  A    between atoms: _581  and  _582
REMARK  248  A    between atoms: _585  and  _587
REMARK  249  A    between atoms: _587  and  _588
REMARK  250  A    between atoms: _587  and  _590
REMARK  251  A    between atoms: _590  and  _591
REMARK  252  A    between atoms: _591  and  _592
REMARK  253  A    between atoms: _592  and  _593
REMARK                            x       y       z     vdW  Elec       q    Type
REMARK                         _______ _______ _______ _____ _____    ______ ____
ROOT
ATOM      1  C   LYS A   1     -17.951  -0.979 -23.992  0.00  0.00    +0.241 C 
ATOM      2  O   LYS A   1     -18.694  -0.368 -23.220  0.00  0.00    -0.273 OA
ATOM      3  N   PRO A   2     -17.528  -2.235 -23.738  0.00  0.00    -0.272 N 
ATOM      4  CA  PRO A   2     -17.801  -2.879 -22.453  0.00  0.00    +0.152 C 
ATOM      5  CB  PRO A   2     -17.194  -4.281 -22.618  0.00  0.00    +0.031 C 
ATOM      6  CG  PRO A   2     -16.203  -4.142 -23.732  0.00  0.00    +0.024 C 
ATOM      7  CD  PRO A   2     -16.785  -3.130 -24.653  0.00  0.00    +0.094 C 
ENDROOT
BRANCH   4   8
ATOM      8  C   PRO A   2     -17.136  -2.140 -21.289  0.00  0.00    +0.241 C 
ATOM      9  N   LEU A   3     -17.813  -2.117 -20.147  0.00  0.00    -0.297 N 
ATOM     10  H   LEU A   3     -18.733  -2.601 -20.106  0.00  0.00    +0.150 HD
ATOM     11  O   PRO A   2     -16.051  -1.583 -21.448  0.00  0.00    -0.273 OA
BRANCH   9  12
ATOM     12  CA  LEU A   3     -17.327  -1.444 -18.945  0.00  0.00    +0.149 C 
BRANCH  12  13
ATOM     13  C   LEU A   3     -17.006  -2.461 -17.852  0.00  0.00    +0.241 C 
ATOM     14  O   LEU A   3     -16.369  -2.134 -16.859  0.00  0.00    -0.273 OA
ATOM     15  N   GLY A   4     -17.471  -3.693 -18.036  0.00  0.00    -0.296 N 
ATOM     16  H   GLY A   4     -18.018  -3.897 -18.897  0.00  0.00    +0.150 HD
BRANCH  15  17
ATOM     17  CA  GLY A   4     -17.244  -4.774 -17.076  0.00  0.00    +0.163 C 
BRANCH  17  18
ATOM     18  C   GLY A   4     -17.864  -6.040 -17.627  0.00  0.00    +0.229 C 
ATOM     19  O   GLY A   4     -18.923  -5.987 -18.246  0.00  0.00    -0.286 OA
ENDBRANCH  17  18
ENDBRANCH  15  17
ENDBRANCH  12  13
BRANCH  12  20
ATOM     20  CB  LEU A   3     -18.372  -0.440 -18.435  0.00  0.00    +0.029 C 
BRANCH  20  21
ATOM     21  CG  LEU A   3     -18.719   0.763 -19.317  0.00  0.00    +0.002 C 
ATOM     22  CD2 LEU A   3     -19.925   1.510 -18.757  0.00  0.00    +0.000 C 
ATOM     23  CD1 LEU A   3     -17.517   1.717 -19.482  0.00  0.00    +0.000 C 
ENDBRANCH  20  21
ENDBRANCH  12  20
ENDBRANCH   9  12
ENDBRANCH   4   8
BRANCH   1  24
ATOM     24  CA  LYS A   1     -17.490  -0.322 -25.323  0.00  0.00    +0.145 C 
BRANCH  24  25
ATOM     25  N   LYS A   1     -18.498   0.563 -25.916  0.00  0.00    -0.238 NA
ATOM     26  H   LYS A   1     -18.363   1.592 -25.847  0.00  0.00    +0.142 HD
ENDBRANCH  24  25
BRANCH  24  27
ATOM     27  CB  LYS A   1     -16.184   0.461 -25.133  0.00  0.00    +0.026 C 
BRANCH  27  28
ATOM     28  CG  LYS A   1     -16.191   1.377 -23.915  0.00  0.00    -0.000 C 
BRANCH  28  29
ATOM     29  CD  LYS A   1     -15.163   2.499 -23.988  0.00  0.00    -0.024 C 
BRANCH  29  30
ATOM     30  CE  LYS A   1     -15.020   3.136 -22.622  0.00  0.00    -0.086 C 
BRANCH  30  31
ATOM     31  NZ  LYS A   1     -14.663   4.578 -22.716  0.00  0.00    +0.380 N 
ATOM     32  HZ1 LYS A   1     -14.575   4.975 -21.759  0.00  0.00    -0.089 HD
ATOM     33  HZ2 LYS A   1     -13.758   4.678 -23.219  0.00  0.00    -0.089 HD
ATOM     34  HZ3 LYS A   1     -15.407   5.085 -23.236  0.00  0.00    -0.089 HD
ENDBRANCH  30  31
ENDBRANCH  29  30
ENDBRANCH  28  29
ENDBRANCH  27  28
ENDBRANCH  24  27
ENDBRANCH   1  24
TORSDOF 14
REMARK  Name = ../refined-set-2016/4asd/4asd_pocket.pdb
REMARK  253 active torsions:
REMARK  status: ('A' for Active; 'I' for Inactive)
REMARK    1  A    between atoms: _1  and  _3
REMARK    2  A    between atoms: _3  and  _4
REMARK    3  A    between atoms: _3  and  _6
REMARK    4  A    between atoms: _6  and  _7
REMARK    5  A    between atoms: _10  and  _12
REMARK    6  A    between atoms: _12  and  _13
REMARK    7  A    between atoms: _12  and  _15
REMARK    8  A    between atoms: _15  and  _16
REMARK    9  A    between atoms: _19  and  _21
REMARK   10  A    between atoms: _21  and  _22
REMARK   11  A    between atoms: _21  and  _24
REMARK   12  A    between atoms: _24  and  _25
REMARK   13  A    between atoms: _25  and  _26
REMARK   14  A    between atoms: _26  and  _27
REMARK   15  A    between atoms: _27  and  _28
REMARK   16  A    between atoms: _33  and  _34
REMARK   17  A    between atoms: _39  and  _41
REMARK   18  A    between atoms: _41  and  _42
REMARK   19  A    between atoms: _41  and  _44
REMARK   20  A    between atoms: _44  and  _45
REMARK   21  A    between atoms: _48  and  _50
REMARK   22  A    between atoms: _50  and  _51
REMARK   23  A    between atoms: _53  and  _55
REMARK   24  A    between atoms: _55  and  _56
REMARK   25  A    between atoms: _55  and  _58
REMARK   26  A    between atoms: _58  and  _59
REMARK   27  A    between atoms: _59  and  _60
REMARK   28  A    between atoms: _65  and  _67
REMARK   29  A    between atoms: _67  and  _68
REMARK   30  A    between atoms: _67  and  _70
REMARK   31  A    between atoms: _73  and  _75
REMARK   32  A    between atoms: _75  and  _76
REMARK   33  A    between atoms: _75  and  _78
REMARK   34  A    between atoms: _78  and  _79
REMARK   35  A    between atoms: _82  and  _84
REMARK   36  A    between atoms: _84  and  _85
REMARK   37  A    between atoms: _84  and  _87
REMARK   38  A    between atoms: _87  and  _88
REMARK   39  A    between atoms: _88  and  _89
REMARK   40  A    between atoms: _92  and  _94
REMARK   41  A    between atoms: _94  and  _95
REMARK   42  A    between atoms: _94  and  _97
REMARK   43  A    between atoms: _97  and  _98
REMARK   44  A    between atoms: _101  and  _103
REMARK   45  A    between atoms: _103  and  _104
REMARK   46  A    between atoms: _103  and  _106
REMARK   47  A    between atoms: _109  and  _111
REMARK   48  A    between atoms: _111  and  _112
REMARK   49  A    between atoms: _115  and  _117
REMARK   50  A    between atoms: _117  and  _118
REMARK   51  A    between atoms: _117  and  _120
REMARK   52  A    between atoms: _123  and  _125
REMARK   53  A    between atoms: _125  and  _126
REMARK   54  A    between atoms: _125  and  _128
REMARK   55  A    between atoms: _128  and  _129
REMARK   56  A    between atoms: _129  and  _130
REMARK   57  A    between atoms: _130  and  _131
REMARK   58  A    between atoms: _131  and  _132
REMARK   59  A    between atoms: _136  and  _138
REMARK   60  A    between atoms: _138  and  _139
REMARK   61  A    between atoms: _138  and  _141
REMARK   62  A    between atoms: _141  and  _142
REMARK   63  A    between atoms: _142  and  _143
REMARK   64  A    between atoms: _145  and  _147
REMARK   65  A    between atoms: _147  and  _148
REMARK   66  A    between atoms: _147  and  _150
REMARK   67  A    between atoms: _150  and  _151
REMARK   68  A    between atoms: _154  and  _156
REMARK   69  A    between atoms: _156  and  _157
REMARK   70  A    between atoms: _156  and  _159
REMARK   71  A    between atoms: _159  and  _160
REMARK   72  A    between atoms: _162  and  _164
REMARK   73  A    between atoms: _164  and  _165
REMARK   74  A    between atoms: _164  and  _167
REMARK   75  A    between atoms: _167  and  _168
REMARK   76  A    between atoms: _168  and  _169
REMARK   77  A    between atoms: _172  and  _174
REMARK   78  A    between atoms: _174  and  _175
REMARK   79  A    between atoms: _174  and  _177
REMARK   80  A    between atoms: _177  and  _178
REMARK   81  A    between atoms: _181  and  _183
REMARK   82  A    between atoms: _183  and  _184
REMARK   83  A    between atoms: _183  and  _186
REMARK   84  A    between atoms: _186  and  _187
REMARK   85  A    between atoms: _190  and  _192
REMARK   86  A    between atoms: _192  and  _193
REMARK   87  A    between atoms: _192  and  _195
REMARK   88  A    between atoms: _195  and  _196
REMARK   89  A    between atoms: _199  and  _201
REMARK   90  A    between atoms: _201  and  _202
REMARK   91  A    between atoms: _201  and  _204
REMARK   92  A    between atoms: _204  and  _205
REMARK   93  A    between atoms: _208  and  _210
REMARK   94  A    between atoms: _210  and  _211
REMARK   95  A    between atoms: _213  and  _215
REMARK   96  A    between atoms: _215  and  _216
REMARK   97  A    between atoms: _215  and  _218
REMARK   98  A    between atoms: _218  and  _219
REMARK   99  A    between atoms: _224  and  _226
REMARK  100  A    between atoms: _226  and  _227
REMARK  101  A    between atoms: _226  and  _229
REMARK  102  A    between atoms: _232  and  _234
REMARK  103  A    between atoms: _234  and  _235
REMARK  104  A    between atoms: _234  and  _237
REMARK  105  A    between atoms: _240  and  _242
REMARK  106  A    between atoms: _242  and  _243
REMARK  107  A    between atoms: _242  and  _245
REMARK  108  A    between atoms: _245  and  _246
REMARK  109  A    between atoms: _251  and  _253
REMARK  110  A    between atoms: _253  and  _254
REMARK  111  A    between atoms: _253  and  _256
REMARK  112  A    between atoms: _256  and  _257
REMARK  113  A    between atoms: _260  and  _262
REMARK  114  A    between atoms: _262  and  _263
REMARK  115  A    between atoms: _262  and  _265
REMARK  116  A    between atoms: _268  and  _270
REMARK  117  A    between atoms: _270  and  _271
REMARK  118  A    between atoms: _270  and  _273
REMARK  119  A    between atoms: _273  and  _274
REMARK  120  A    between atoms: _277  and  _279
REMARK  121  A    between atoms: _279  and  _280
REMARK  122  A    between atoms: _279  and  _282
REMARK  123  A    between atoms: _285  and  _287
REMARK  124  A    between atoms: _287  and  _288
REMARK  125  A    between atoms: _287  and  _290
REMARK  126  A    between atoms: _290  and  _291
REMARK  127  A    between atoms: _291  and  _292
REMARK  128  A    between atoms: _295  and  _297
REMARK  129  A    between atoms: _297  and  _298
REMARK  130  A    between atoms: _297  and  _300
REMARK  131  A    between atoms: _300  and  _301
REMARK  132  A    between atoms: _307  and  _309
REMARK  133  A    between atoms: _309  and  _310
REMARK  134  A    between atoms: _309  and  _312
REMARK  135  A    between atoms: _314  and  _316
REMARK  136  A    between atoms: _316  and  _317
REMARK  137  A    between atoms: _316  and  _319
REMARK  138  A    between atoms: _319  and  _320
REMARK  139  A    between atoms: _320  and  _321
REMARK  140  A    between atoms: _321  and  _322
REMARK  141  A    between atoms: _322  and  _323
REMARK  142  A    between atoms: _327  and  _329
REMARK  143  A    between atoms: _329  and  _330
REMARK  144  A    between atoms: _329  and  _332
REMARK  145  A    between atoms: _332  and  _333
REMARK  146  A    between atoms: _339  and  _341
REMARK  147  A    between atoms: _341  and  _342
REMARK  148  A    between atoms: _344  and  _346
REMARK  149  A    between atoms: _346  and  _347
REMARK  150  A    between atoms: _346  and  _349
REMARK  151  A    between atoms: _349  and  _350
REMARK  152  A    between atoms: _355  and  _357
REMARK  153  A    between atoms: _357  and  _358
REMARK  154  A    between atoms: _360  and  _362
REMARK  155  A    between atoms: _362  and  _363
REMARK  156  A    between atoms: _362  and  _365
REMARK  157  A    between atoms: _365  and  _366
REMARK  158  A    between atoms: _366  and  _367
REMARK  159  A    between atoms: _369  and  _371
REMARK  160  A    between atoms: _371  and  _372
REMARK  161  A    between atoms: _371  and  _374
REMARK  162  A    between atoms: _374  and  _375
REMARK  163  A    between atoms: _381  and  _383
REMARK  164  A    between atoms: _383  and  _384
REMARK  165  A    between atoms: _383  and  _386
REMARK  166  A    between atoms: _386  and  _387
REMARK  167  A    between atoms: _390  and  _392
REMARK  168  A    between atoms: _392  and  _393
REMARK  169  A    between atoms: _392  and  _395
REMARK  170  A    between atoms: _397  and  _399
REMARK  171  A    between atoms: _399  and  _400
REMARK  172  A    between atoms: _399  and  _402
REMARK  173  A    between atoms: _402  and  _403
REMARK  174  A    between atoms: _406  and  _408
REMARK  175  A    between atoms: _408  and  _409
REMARK  176  A    between atoms: _408  and  _411
REMARK  177  A    between atoms: _411  and  _412
REMARK  178  A    between atoms: _417  and  _419
REMARK  179  A    between atoms: _419  and  _420
REMARK  180  A    between atoms: _419  and  _422
REMARK  181  A    between atoms: _422  and  _423
REMARK  182  A    between atoms: _423  and  _424
REMARK  183  A    between atoms: _424  and  _425
REMARK  184  A    between atoms: _434  and  _436
REMARK  185  A    between atoms: _436  and  _437
REMARK  186  A    between atoms: _436  and  _439
REMARK  187  A    between atoms: _439  and  _440
REMARK  188  A    between atoms: _443  and  _445
REMARK  189  A    between atoms: _445  and  _446
REMARK  190  A    between atoms: _445  and  _448
REMARK  191  A    between atoms: _448  and  _449
REMARK  192  A    between atoms: _452  and  _454
REMARK  193  A    between atoms: _454  and  _455
REMARK  194  A    between atoms: _454  and  _457
REMARK  195  A    between atoms: _457  and  _458
REMARK  196  A    between atoms: _458  and  _459
REMARK  197  A    between atoms: _459  and  _460
REMARK  198  A    between atoms: _469  and  _471
REMARK  199  A    between atoms: _471  and  _472
REMARK  200  A    between atoms: _471  and  _474
REMARK  201  A    between atoms: _474  and  _475
REMARK  202  A    between atoms: _480  and  _482
REMARK  203  A    between atoms: _482  and  _483
REMARK  204  A    between atoms: _482  and  _485
REMARK  205  A    between atoms: _485  and  _486
REMARK  206  A    between atoms: _489  and  _491
REMARK  207  A    between atoms: _491  and  _492
REMARK  208  A    between atoms: _491  and  _494
REMARK  209  A    between atoms: _494  and  _495
REMARK  210  A    between atoms: _498  and  _500
REMARK  211  A    between atoms: _500  and  _501
REMARK  212  A    between atoms: _500  and  _503
REMARK  213  A    between atoms: _503  and  _504
REMARK  214  A    between atoms: _507  and  _509
REMARK  215  A    between atoms: _509  and  _510
REMARK  216  A    between atoms: _509  and  _512
REMARK  217  A    between atoms: _512  and  _513
REMARK  218  A    between atoms: _515  and  _517
REMARK  219  A    between atoms: _517  and  _518
REMARK  220  A    between atoms: _517  and  _520
REMARK  221  A    between atoms: _520  and  _521
REMARK  222  A    between atoms: _521  and  _522
REMARK  223  A    between atoms: _522  and  _523
REMARK  224  A    between atoms: _523  and  _524
REMARK  225  A    between atoms: _528  and  _530
REMARK  226  A    between atoms: _530  and  _531
REMARK  227  A    between atoms: _530  and  _533
REMARK  228  A    between atoms: _533  and  _534
REMARK  229  A    between atoms: _537  and  _539
REMARK  230  A    between atoms: _539  and  _540
REMARK  231  A    between atoms: _539  and  _542
REMARK  232  A    between atoms: _544  and  _546
REMARK  233  A    between atoms: _546  and  _547
REMARK  234  A    between atoms: _546  and  _549
REMARK  235  A    between atoms: _549  and  _550
REMARK  236  A    between atoms: _553  and  _555
REMARK  237  A    between atoms: _555  and  _556
REMARK  238  A    between atoms: _555  and  _558
REMARK  239  A    between atoms: _558  and  _559
REMARK  240  A    between atoms: _565  and  _567
REMARK  241  A    between atoms: _567  and  _568
REMARK  242  A    between atoms: _570  and  _572
REMARK  243  A    between atoms: _572  and  _573
REMARK  244  A    between atoms: _572  and  _575
REMARK  245  A    between atoms: _575  and  _576
REMARK  246  A    between atoms: _579  and  _581
REMARK  247  A    between atoms: _581  and  _582
REMARK  248  A    between atoms: _585  and  _587
REMARK  249  A    between atoms: _587  and  _588
REMARK  250  A    between atoms: _587  and  _590
REMARK  251  A    between atoms: _590  and  _591
REMARK  252  A    between atoms: _591  and  _592
REMARK  253  A    between atoms: _592  and  _593
REMARK                            x       y       z     vdW  Elec       q    Type
REMARK                         _______ _______ _______ _____ _____    ______ ____
ROOT
ATOM      1  C   VAL A   2     -21.443  -3.171 -19.661  0.00  0.00    +0.241 C 
ATOM      2  O   VAL A   2     -20.243  -3.373 -19.869  0.00  0.00    -0.273 OA
ATOM      3  N   ILE A   3     -22.201  -2.468 -20.481  0.00  0.00    -0.297 N 
ATOM      4  H   ILE A   3     -23.230  -2.418 -20.335  0.00  0.00    +0.150 HD
ENDROOT
BRANCH   3   5
ATOM      5  CA  ILE A   3     -21.588  -1.773 -21.576  0.00  0.00    +0.149 C 
BRANCH   5   6
ATOM      6  C   ILE A   3     -22.022  -0.310 -21.639  0.00  0.00    +0.241 C 
ATOM      7  O   ILE A   3     -23.146   0.059 -21.248  0.00  0.00    -0.273 OA
ATOM      8  N   GLU A   4     -21.116   0.527 -22.129  0.00  0.00    -0.298 N 
ATOM      9  H   GLU A   4     -20.177   0.169 -22.396  0.00  0.00    +0.150 HD
BRANCH   8  10
ATOM     10  CA  GLU A   4     -21.418   1.925 -22.296  0.00  0.00    +0.137 C 
BRANCH  10  11
ATOM     11  C   GLU A   4     -22.324   2.116 -23.502  0.00  0.00    +0.227 C 
ATOM     12  O   GLU A   4     -22.224   1.374 -24.475  0.00  0.00    -0.286 OA
ENDBRANCH  10  11
BRANCH  10  13
ATOM     13  CB  GLU A   4     -20.130   2.717 -22.467  0.00  0.00    +0.039 C 
BRANCH  13  14
ATOM     14  CG  GLU A   4     -20.339   4.201 -22.439  0.00  0.00    +0.116 C 
BRANCH  14  15
ATOM     15  CD  GLU A   4     -19.070   4.954 -22.752  0.00  0.00    +0.365 C 
ATOM     16  OE2 GLU A   4     -18.046   4.686 -22.096  0.00  0.00    -0.246 OA
ATOM     17  OE1 GLU A   4     -19.110   5.810 -23.659  0.00  0.00    -0.246 OA
ENDBRANCH  14  15
ENDBRANCH  13  14
ENDBRANCH  10  13
ENDBRANCH   8  10
ENDBRANCH   5   6
BRANCH   5  18
ATOM     18  CB  ILE A   3     -21.761  -2.516 -22.949  0.00  0.00    +0.027 C 
ATOM     19  CG2 ILE A   3     -21.992  -4.070 -22.807  0.00  0.00    +0.002 C 
BRANCH  18  20
ATOM     20  CG1 ILE A   3     -22.834  -1.902 -23.802  0.00  0.00    +0.002 C 
ATOM     21  CD1 ILE A   3     -22.391  -1.865 -25.212  0.00  0.00    +0.000 C 
ENDBRANCH  18  20
ENDBRANCH   5  18
ENDBRANCH   3   5
BRANCH   1  22
ATOM     22  CA  VAL A   2     -22.145  -3.793 -18.468  0.00  0.00    +0.148 C 
BRANCH  22  24
ATOM     23  C   GLN A   1     -22.511  -6.192 -18.445  0.00  0.00    +0.238 C 
ATOM     24  N   VAL A   2     -21.675  -5.167 -18.387  0.00  0.00    -0.297 N 
ATOM     25  H   VAL A   2     -20.657  -5.349 -18.281  0.00  0.00    +0.150 HD
ATOM     26  O   GLN A   1     -23.747  -6.078 -18.401  0.00  0.00    -0.274 OA
BRANCH  23  27
ATOM     27  CA  GLN A   1     -21.846  -7.555 -18.555  0.00  0.00    +0.145 C 
BRANCH  27  28
ATOM     28  N   GLN A   1     -22.764  -8.588 -18.127  0.00  0.00    -0.238 NA
ATOM     29  H   GLN A   1     -23.787  -8.399 -18.115  0.00  0.00    +0.142 HD
ENDBRANCH  27  28
BRANCH  27  30
ATOM     30  CB  GLN A   1     -21.387  -7.810 -19.995  0.00  0.00    +0.036 C 
BRANCH  30  31
ATOM     31  CG  GLN A   1     -22.501  -7.762 -21.025  0.00  0.00    +0.087 C 
BRANCH  31  32
ATOM     32  CD  GLN A   1     -22.019  -8.191 -22.393  0.00  0.00    +0.219 C 
ATOM     33  OE1 GLN A   1     -20.882  -7.933 -22.752  0.00  0.00    -0.275 OA
ATOM     34  NE2 GLN A   1     -22.872  -8.888 -23.142  0.00  0.00    -0.329 N 
ATOM     35 HE21 GLN A   1     -23.832  -9.083 -22.792  0.00  0.00    +0.145 HD
ATOM     36 HE22 GLN A   1     -22.578  -9.237 -24.076  0.00  0.00    +0.145 HD
ENDBRANCH  31  32
ENDBRANCH  30  31
ENDBRANCH  27  30
ENDBRANCH  23  27
ENDBRANCH  22  24
BRANCH  22  37
ATOM     37  CB  VAL A   2     -21.888  -3.004 -17.166  0.00  0.00    +0.027 C 
ATOM     38  CG2 VAL A   2     -22.740  -3.581 -16.022  0.00  0.00    +0.002 C 
ATOM     39  CG1 VAL A   2     -22.202  -1.499 -17.370  0.00  0.00    +0.002 C 
ENDBRANCH  22  37
ENDBRANCH   1  22
TORSDOF 17
REMARK  Name = ../refined-set-2016/4asd/4asd_pocket.pdb
REMARK  253 active torsions:
REMARK  status: ('A' for Active; 'I' for Inactive)
REMARK    1  A    between atoms: _1  and  _3
REMARK    2  A    between atoms: _3  and  _4
REMARK    3  A    between atoms: _3  and  _6
REMARK    4  A    between atoms: _6  and  _7
REMARK    5  A    between atoms: _10  and  _12
REMARK    6  A    between atoms: _12  and  _13
REMARK    7  A    between atoms: _12  and  _15
REMARK    8  A    between atoms: _15  and  _16
REMARK    9  A    between atoms: _19  and  _21
REMARK   10  A    between atoms: _21  and  _22
REMARK   11  A    between atoms: _21  and  _24
REMARK   12  A    between atoms: _24  and  _25
REMARK   13  A    between atoms: _25  and  _26
REMARK   14  A    between atoms: _26  and  _27
REMARK   15  A    between atoms: _27  and  _28
REMARK   16  A    between atoms: _33  and  _34
REMARK   17  A    between atoms: _39  and  _41
REMARK   18  A    between atoms: _41  and  _42
REMARK   19  A    between atoms: _41  and  _44
REMARK   20  A    between atoms: _44  and  _45
REMARK   21  A    between atoms: _48  and  _50
REMARK   22  A    between atoms: _50  and  _51
REMARK   23  A    between atoms: _53  and  _55
REMARK   24  A    between atoms: _55  and  _56
REMARK   25  A    between atoms: _55  and  _58
REMARK   26  A    between atoms: _58  and  _59
REMARK   27  A    between atoms: _59  and  _60
REMARK   28  A    between atoms: _65  and  _67
REMARK   29  A    between atoms: _67  and  _68
REMARK   30  A    between atoms: _67  and  _70
REMARK   31  A    between atoms: _73  and  _75
REMARK   32  A    between atoms: _75  and  _76
REMARK   33  A    between atoms: _75  and  _78
REMARK   34  A    between atoms: _78  and  _79
REMARK   35  A    between atoms: _82  and  _84
REMARK   36  A    between atoms: _84  and  _85
REMARK   37  A    between atoms: _84  and  _87
REMARK   38  A    between atoms: _87  and  _88
REMARK   39  A    between atoms: _88  and  _89
REMARK   40  A    between atoms: _92  and  _94
REMARK   41  A    between atoms: _94  and  _95
REMARK   42  A    between atoms: _94  and  _97
REMARK   43  A    between atoms: _97  and  _98
REMARK   44  A    between atoms: _101  and  _103
REMARK   45  A    between atoms: _103  and  _104
REMARK   46  A    between atoms: _103  and  _106
REMARK   47  A    between atoms: _109  and  _111
REMARK   48  A    between atoms: _111  and  _112
REMARK   49  A    between atoms: _115  and  _117
REMARK   50  A    between atoms: _117  and  _118
REMARK   51  A    between atoms: _117  and  _120
REMARK   52  A    between atoms: _123  and  _125
REMARK   53  A    between atoms: _125  and  _126
REMARK   54  A    between atoms: _125  and  _128
REMARK   55  A    between atoms: _128  and  _129
REMARK   56  A    between atoms: _129  and  _130
REMARK   57  A    between atoms: _130  and  _131
REMARK   58  A    between atoms: _131  and  _132
REMARK   59  A    between atoms: _136  and  _138
REMARK   60  A    between atoms: _138  and  _139
REMARK   61  A    between atoms: _138  and  _141
REMARK   62  A    between atoms: _141  and  _142
REMARK   63  A    between atoms: _142  and  _143
REMARK   64  A    between atoms: _145  and  _147
REMARK   65  A    between atoms: _147  and  _148
REMARK   66  A    between atoms: _147  and  _150
REMARK   67  A    between atoms: _150  and  _151
REMARK   68  A    between atoms: _154  and  _156
REMARK   69  A    between atoms: _156  and  _157
REMARK   70  A    between atoms: _156  and  _159
REMARK   71  A    between atoms: _159  and  _160
REMARK   72  A    between atoms: _162  and  _164
REMARK   73  A    between atoms: _164  and  _165
REMARK   74  A    between atoms: _164  and  _167
REMARK   75  A    between atoms: _167  and  _168
REMARK   76  A    between atoms: _168  and  _169
REMARK   77  A    between atoms: _172  and  _174
REMARK   78  A    between atoms: _174  and  _175
REMARK   79  A    between atoms: _174  and  _177
REMARK   80  A    between atoms: _177  and  _178
REMARK   81  A    between atoms: _181  and  _183
REMARK   82  A    between atoms: _183  and  _184
REMARK   83  A    between atoms: _183  and  _186
REMARK   84  A    between atoms: _186  and  _187
REMARK   85  A    between atoms: _190  and  _192
REMARK   86  A    between atoms: _192  and  _193
REMARK   87  A    between atoms: _192  and  _195
REMARK   88  A    between atoms: _195  and  _196
REMARK   89  A    between atoms: _199  and  _201
REMARK   90  A    between atoms: _201  and  _202
REMARK   91  A    between atoms: _201  and  _204
REMARK   92  A    between atoms: _204  and  _205
REMARK   93  A    between atoms: _208  and  _210
REMARK   94  A    between atoms: _210  and  _211
REMARK   95  A    between atoms: _213  and  _215
REMARK   96  A    between atoms: _215  and  _216
REMARK   97  A    between atoms: _215  and  _218
REMARK   98  A    between atoms: _218  and  _219
REMARK   99  A    between atoms: _224  and  _226
REMARK  100  A    between atoms: _226  and  _227
REMARK  101  A    between atoms: _226  and  _229
REMARK  102  A    between atoms: _232  and  _234
REMARK  103  A    between atoms: _234  and  _235
REMARK  104  A    between atoms: _234  and  _237
REMARK  105  A    between atoms: _240  and  _242
REMARK  106  A    between atoms: _242  and  _243
REMARK  107  A    between atoms: _242  and  _245
REMARK  108  A    between atoms: _245  and  _246
REMARK  109  A    between atoms: _251  and  _253
REMARK  110  A    between atoms: _253  and  _254
REMARK  111  A    between atoms: _253  and  _256
REMARK  112  A    between atoms: _256  and  _257
REMARK  113  A    between atoms: _260  and  _262
REMARK  114  A    between atoms: _262  and  _263
REMARK  115  A    between atoms: _262  and  _265
REMARK  116  A    between atoms: _268  and  _270
REMARK  117  A    between atoms: _270  and  _271
REMARK  118  A    between atoms: _270  and  _273
REMARK  119  A    between atoms: _273  and  _274
REMARK  120  A    between atoms: _277  and  _279
REMARK  121  A    between atoms: _279  and  _280
REMARK  122  A    between atoms: _279  and  _282
REMARK  123  A    between atoms: _285  and  _287
REMARK  124  A    between atoms: _287  and  _288
REMARK  125  A    between atoms: _287  and  _290
REMARK  126  A    between atoms: _290  and  _291
REMARK  127  A    between atoms: _291  and  _292
REMARK  128  A    between atoms: _295  and  _297
REMARK  129  A    between atoms: _297  and  _298
REMARK  130  A    between atoms: _297  and  _300
REMARK  131  A    between atoms: _300  and  _301
REMARK  132  A    between atoms: _307  and  _309
REMARK  133  A    between atoms: _309  and  _310
REMARK  134  A    between atoms: _309  and  _312
REMARK  135  A    between atoms: _314  and  _316
REMARK  136  A    between atoms: _316  and  _317
REMARK  137  A    between atoms: _316  and  _319
REMARK  138  A    between atoms: _319  and  _320
REMARK  139  A    between atoms: _320  and  _321
REMARK  140  A    between atoms: _321  and  _322
REMARK  141  A    between atoms: _322  and  _323
REMARK  142  A    between atoms: _327  and  _329
REMARK  143  A    between atoms: _329  and  _330
REMARK  144  A    between atoms: _329  and  _332
REMARK  145  A    between atoms: _332  and  _333
REMARK  146  A    between atoms: _339  and  _341
REMARK  147  A    between atoms: _341  and  _342
REMARK  148  A    between atoms: _344  and  _346
REMARK  149  A    between atoms: _346  and  _347
REMARK  150  A    between atoms: _346  and  _349
REMARK  151  A    between atoms: _349  and  _350
REMARK  152  A    between atoms: _355  and  _357
REMARK  153  A    between atoms: _357  and  _358
REMARK  154  A    between atoms: _360  and  _362
REMARK  155  A    between atoms: _362  and  _363
REMARK  156  A    between atoms: _362  and  _365
REMARK  157  A    between atoms: _365  and  _366
REMARK  158  A    between atoms: _366  and  _367
REMARK  159  A    between atoms: _369  and  _371
REMARK  160  A    between atoms: _371  and  _372
REMARK  161  A    between atoms: _371  and  _374
REMARK  162  A    between atoms: _374  and  _375
REMARK  163  A    between atoms: _381  and  _383
REMARK  164  A    between atoms: _383  and  _384
REMARK  165  A    between atoms: _383  and  _386
REMARK  166  A    between atoms: _386  and  _387
REMARK  167  A    between atoms: _390  and  _392
REMARK  168  A    between atoms: _392  and  _393
REMARK  169  A    between atoms: _392  and  _395
REMARK  170  A    between atoms: _397  and  _399
REMARK  171  A    between atoms: _399  and  _400
REMARK  172  A    between atoms: _399  and  _402
REMARK  173  A    between atoms: _402  and  _403
REMARK  174  A    between atoms: _406  and  _408
REMARK  175  A    between atoms: _408  and  _409
REMARK  176  A    between atoms: _408  and  _411
REMARK  177  A    between atoms: _411  and  _412
REMARK  178  A    between atoms: _417  and  _419
REMARK  179  A    between atoms: _419  and  _420
REMARK  180  A    between atoms: _419  and  _422
REMARK  181  A    between atoms: _422  and  _423
REMARK  182  A    between atoms: _423  and  _424
REMARK  183  A    between atoms: _424  and  _425
REMARK  184  A    between atoms: _434  and  _436
REMARK  185  A    between atoms: _436  and  _437
REMARK  186  A    between atoms: _436  and  _439
REMARK  187  A    between atoms: _439  and  _440
REMARK  188  A    between atoms: _443  and  _445
REMARK  189  A    between atoms: _445  and  _446
REMARK  190  A    between atoms: _445  and  _448
REMARK  191  A    between atoms: _448  and  _449
REMARK  192  A    between atoms: _452  and  _454
REMARK  193  A    between atoms: _454  and  _455
REMARK  194  A    between atoms: _454  and  _457
REMARK  195  A    between atoms: _457  and  _458
REMARK  196  A    between atoms: _458  and  _459
REMARK  197  A    between atoms: _459  and  _460
REMARK  198  A    between atoms: _469  and  _471
REMARK  199  A    between atoms: _471  and  _472
REMARK  200  A    between atoms: _471  and  _474
REMARK  201  A    between atoms: _474  and  _475
REMARK  202  A    between atoms: _480  and  _482
REMARK  203  A    between atoms: _482  and  _483
REMARK  204  A    between atoms: _482  and  _485
REMARK  205  A    between atoms: _485  and  _486
REMARK  206  A    between atoms: _489  and  _491
REMARK  207  A    between atoms: _491  and  _492
REMARK  208  A    between atoms: _491  and  _494
REMARK  209  A    between atoms: _494  and  _495
REMARK  210  A    between atoms: _498  and  _500
REMARK  211  A    between atoms: _500  and  _501
REMARK  212  A    between atoms: _500  and  _503
REMARK  213  A    between atoms: _503  and  _504
REMARK  214  A    between atoms: _507  and  _509
REMARK  215  A    between atoms: _509  and  _510
REMARK  216  A    between atoms: _509  and  _512
REMARK  217  A    between atoms: _512  and  _513
REMARK  218  A    between atoms: _515  and  _517
REMARK  219  A    between atoms: _517  and  _518
REMARK  220  A    between atoms: _517  and  _520
REMARK  221  A    between atoms: _520  and  _521
REMARK  222  A    between atoms: _521  and  _522
REMARK  223  A    between atoms: _522  and  _523
REMARK  224  A    between atoms: _523  and  _524
REMARK  225  A    between atoms: _528  and  _530
REMARK  226  A    between atoms: _530  and  _531
REMARK  227  A    between atoms: _530  and  _533
REMARK  228  A    between atoms: _533  and  _534
REMARK  229  A    between atoms: _537  and  _539
REMARK  230  A    between atoms: _539  and  _540
REMARK  231  A    between atoms: _539  and  _542
REMARK  232  A    between atoms: _544  and  _546
REMARK  233  A    between atoms: _546  and  _547
REMARK  234  A    between atoms: _546  and  _549
REMARK  235  A    between atoms: _549  and  _550
REMARK  236  A    between atoms: _553  and  _555
REMARK  237  A    between atoms: _555  and  _556
REMARK  238  A    between atoms: _555  and  _558
REMARK  239  A    between atoms: _558  and  _559
REMARK  240  A    between atoms: _565  and  _567
REMARK  241  A    between atoms: _567  and  _568
REMARK  242  A    between atoms: _570  and  _572
REMARK  243  A    between atoms: _572  and  _573
REMARK  244  A    between atoms: _572  and  _575
REMARK  245  A    between atoms: _575  and  _576
REMARK  246  A    between atoms: _579  and  _581
REMARK  247  A    between atoms: _581  and  _582
REMARK  248  A    between atoms: _585  and  _587
REMARK  249  A    between atoms: _587  and  _588
REMARK  250  A    between atoms: _587  and  _590
REMARK  251  A    between atoms: _590  and  _591
REMARK  252  A    between atoms: _591  and  _592
REMARK  253  A    between atoms: _592  and  _593
REMARK                            x       y       z     vdW  Elec       q    Type
REMARK                         _______ _______ _______ _____ _____    ______ ____
ROOT
ATOM      1  CA  VAL A   4     -26.393  -0.915 -19.634  0.00  0.00    +0.149 C 
ENDROOT
BRANCH   1   4
ATOM      2  C   ALA A   3     -25.544   1.111 -18.688  0.00  0.00    +0.241 C 
ATOM      3  O   ALA A   3     -26.554   1.233 -18.000  0.00  0.00    -0.273 OA
ATOM      4  N   VAL A   4     -25.372   0.106 -19.531  0.00  0.00    -0.297 N 
ATOM      5  H   VAL A   4     -24.512   0.050 -20.114  0.00  0.00    +0.150 HD
BRANCH   2   6
ATOM      6  CA  ALA A   3     -24.411   2.123 -18.601  0.00  0.00    +0.149 C 
ATOM      7  CB  ALA A   3     -23.686   1.972 -17.283  0.00  0.00    +0.031 C 
BRANCH   6   9
ATOM      8  C   VAL A   2     -24.668   4.213 -19.809  0.00  0.00    +0.241 C 
ATOM      9  N   ALA A   3     -24.951   3.463 -18.743  0.00  0.00    -0.297 N 
ATOM     10  H   ALA A   3     -25.570   3.845 -18.000  0.00  0.00    +0.150 HD
ATOM     11  O   VAL A   2     -23.835   3.886 -20.665  0.00  0.00    -0.273 OA
BRANCH   8  12
ATOM     12  CA  VAL A   2     -25.429   5.531 -19.927  0.00  0.00    +0.148 C 
BRANCH  12  15
ATOM     13  C   THR A   1     -24.596   7.677 -20.734  0.00  0.00    +0.241 C 
ATOM     14  O   THR A   1     -24.823   8.219 -19.652  0.00  0.00    -0.274 OA
ATOM     15  N   VAL A   2     -24.845   6.387 -20.966  0.00  0.00    -0.297 N 
ATOM     16  H   VAL A   2     -24.622   5.982 -21.897  0.00  0.00    +0.150 HD
BRANCH  13  17
ATOM     17  CA  THR A   1     -24.011   8.483 -21.893  0.00  0.00    +0.172 C 
BRANCH  17  18
ATOM     18  N   THR A   1     -24.833   9.651 -22.110  0.00  0.00    -0.236 NA
ATOM     19  H   THR A   1     -24.445  10.589 -21.886  0.00  0.00    +0.142 HD
ENDBRANCH  17  18
BRANCH  17  20
ATOM     20  CB  THR A   1     -22.560   8.855 -21.564  0.00  0.00    +0.135 C 
ATOM     21  CG2 THR A   1     -21.717   7.584 -21.453  0.00  0.00    +0.034 C 
BRANCH  20  22
ATOM     22  OG1 THR A   1     -22.023   9.677 -22.608  0.00  0.00    -0.383 OA
ATOM     23  HG1 THR A   1     -21.087   9.914 -22.391  0.00  0.00    +0.210 HD
ENDBRANCH  20  22
ENDBRANCH  17  20
ENDBRANCH  13  17
ENDBRANCH  12  15
BRANCH  12  24
ATOM     24  CB  VAL A   2     -26.933   5.241 -20.207  0.00  0.00    +0.027 C 
ATOM     25  CG2 VAL A   2     -27.750   6.554 -20.261  0.00  0.00    +0.002 C 
ATOM     26  CG1 VAL A   2     -27.093   4.449 -21.508  0.00  0.00    +0.002 C 
ENDBRANCH  12  24
ENDBRANCH   8  12
ENDBRANCH   6   9
ENDBRANCH   2   6
ENDBRANCH   1   4
BRANCH   1  27
ATOM     27  C   VAL A   4     -25.944  -2.300 -19.159  0.00  0.00    +0.241 C 
ATOM     28  N   LYS A   5     -26.643  -2.784 -18.143  0.00  0.00    -0.297 N 
ATOM     29  H   LYS A   5     -27.346  -2.179 -17.673  0.00  0.00    +0.150 HD
ATOM     30  O   VAL A   4     -24.967  -2.886 -19.654  0.00  0.00    -0.273 OA
BRANCH  28  31
ATOM     31  CA  LYS A   5     -26.446  -4.140 -17.674  0.00  0.00    +0.149 C 
BRANCH  31  32
ATOM     32  C   LYS A   5     -27.289  -5.103 -18.500  0.00  0.00    +0.241 C 
ATOM     33  O   LYS A   5     -28.488  -4.894 -18.707  0.00  0.00    -0.273 OA
ATOM     34  N   MET A   6     -26.636  -6.165 -18.960  0.00  0.00    -0.298 N 
ATOM     35  H   MET A   6     -25.625  -6.269 -18.737  0.00  0.00    +0.150 HD
BRANCH  34  36
ATOM     36  CA  MET A   6     -27.287  -7.184 -19.763  0.00  0.00    +0.138 C 
BRANCH  36  37
ATOM     37  C   MET A   6     -26.515  -8.491 -19.623  0.00  0.00    +0.227 C 
ATOM     38  O   MET A   6     -25.456  -8.540 -18.998  0.00  0.00    -0.286 OA
ENDBRANCH  36  37
BRANCH  36  39
ATOM     39  CB  MET A   6     -27.336  -6.743 -21.227  0.00  0.00    +0.039 C 
BRANCH  39  40
ATOM     40  CG  MET A   6     -25.970  -6.515 -21.847  0.00  0.00    +0.060 C 
BRANCH  40  41
ATOM     41  SD  MET A   6     -26.057  -6.098 -23.595  0.00  0.00    -0.139 S 
ATOM     42  CE  MET A   6     -26.568  -7.676 -24.308  0.00  0.00    +0.069 C 
ENDBRANCH  40  41
ENDBRANCH  39  40
ENDBRANCH  36  39
ENDBRANCH  34  36
ENDBRANCH  31  32
BRANCH  31  43
ATOM     43  CB  LYS A   5     -26.761  -4.299 -16.184  0.00  0.00    +0.029 C 
BRANCH  43  44
ATOM     44  CG  LYS A   5     -26.278  -5.668 -15.615  0.00  0.00    +0.000 C 
BRANCH  44  45
ATOM     45  CD  LYS A   5     -26.653  -5.906 -14.147  0.00  0.00    -0.024 C 
BRANCH  45  46
ATOM     46  CE  LYS A   5     -25.687  -5.238 -13.154  0.00  0.00    -0.086 C 
BRANCH  46  47
ATOM     47  NZ  LYS A   5     -25.996  -5.736 -11.800  0.00  0.00    +0.380 N 
ATOM     48  HZ1 LYS A   5     -25.351  -5.294 -11.114  0.00  0.00    -0.089 HD
ATOM     49  HZ2 LYS A   5     -26.979  -5.495 -11.559  0.00  0.00    -0.089 HD
ATOM     50  HZ3 LYS A   5     -25.875  -6.769 -11.776  0.00  0.00    -0.089 HD
ENDBRANCH  46  47
ENDBRANCH  45  46
ENDBRANCH  44  45
ENDBRANCH  43  44
ENDBRANCH  31  43
ENDBRANCH  28  31
ENDBRANCH   1  27
BRANCH   1  51
ATOM     51  CB  VAL A   4     -27.214  -0.856 -20.992  0.00  0.00    +0.027 C 
ATOM     52  CG2 VAL A   4     -27.596  -2.229 -21.541  0.00  0.00    +0.002 C 
ATOM     53  CG1 VAL A   4     -26.605   0.096 -22.021  0.00  0.00    +0.002 C 
ENDBRANCH   1  51
TORSDOF 24
REMARK  Name = ../refined-set-2016/4asd/4asd_pocket.pdb
REMARK  253 active torsions:
REMARK  status: ('A' for Active; 'I' for Inactive)
REMARK    1  A    between atoms: _1  and  _3
REMARK    2  A    between atoms: _3  and  _4
REMARK    3  A    between atoms: _3  and  _6
REMARK    4  A    between atoms: _6  and  _7
REMARK    5  A    between atoms: _10  and  _12
REMARK    6  A    between atoms: _12  and  _13
REMARK    7  A    between atoms: _12  and  _15
REMARK    8  A    between atoms: _15  and  _16
REMARK    9  A    between atoms: _19  and  _21
REMARK   10  A    between atoms: _21  and  _22
REMARK   11  A    between atoms: _21  and  _24
REMARK   12  A    between atoms: _24  and  _25
REMARK   13  A    between atoms: _25  and  _26
REMARK   14  A    between atoms: _26  and  _27
REMARK   15  A    between atoms: _27  and  _28
REMARK   16  A    between atoms: _33  and  _34
REMARK   17  A    between atoms: _39  and  _41
REMARK   18  A    between atoms: _41  and  _42
REMARK   19  A    between atoms: _41  and  _44
REMARK   20  A    between atoms: _44  and  _45
REMARK   21  A    between atoms: _48  and  _50
REMARK   22  A    between atoms: _50  and  _51
REMARK   23  A    between atoms: _53  and  _55
REMARK   24  A    between atoms: _55  and  _56
REMARK   25  A    between atoms: _55  and  _58
REMARK   26  A    between atoms: _58  and  _59
REMARK   27  A    between atoms: _59  and  _60
REMARK   28  A    between atoms: _65  and  _67
REMARK   29  A    between atoms: _67  and  _68
REMARK   30  A    between atoms: _67  and  _70
REMARK   31  A    between atoms: _73  and  _75
REMARK   32  A    between atoms: _75  and  _76
REMARK   33  A    between atoms: _75  and  _78
REMARK   34  A    between atoms: _78  and  _79
REMARK   35  A    between atoms: _82  and  _84
REMARK   36  A    between atoms: _84  and  _85
REMARK   37  A    between atoms: _84  and  _87
REMARK   38  A    between atoms: _87  and  _88
REMARK   39  A    between atoms: _88  and  _89
REMARK   40  A    between atoms: _92  and  _94
REMARK   41  A    between atoms: _94  and  _95
REMARK   42  A    between atoms: _94  and  _97
REMARK   43  A    between atoms: _97  and  _98
REMARK   44  A    between atoms: _101  and  _103
REMARK   45  A    between atoms: _103  and  _104
REMARK   46  A    between atoms: _103  and  _106
REMARK   47  A    between atoms: _109  and  _111
REMARK   48  A    between atoms: _111  and  _112
REMARK   49  A    between atoms: _115  and  _117
REMARK   50  A    between atoms: _117  and  _118
REMARK   51  A    between atoms: _117  and  _120
REMARK   52  A    between atoms: _123  and  _125
REMARK   53  A    between atoms: _125  and  _126
REMARK   54  A    between atoms: _125  and  _128
REMARK   55  A    between atoms: _128  and  _129
REMARK   56  A    between atoms: _129  and  _130
REMARK   57  A    between atoms: _130  and  _131
REMARK   58  A    between atoms: _131  and  _132
REMARK   59  A    between atoms: _136  and  _138
REMARK   60  A    between atoms: _138  and  _139
REMARK   61  A    between atoms: _138  and  _141
REMARK   62  A    between atoms: _141  and  _142
REMARK   63  A    between atoms: _142  and  _143
REMARK   64  A    between atoms: _145  and  _147
REMARK   65  A    between atoms: _147  and  _148
REMARK   66  A    between atoms: _147  and  _150
REMARK   67  A    between atoms: _150  and  _151
REMARK   68  A    between atoms: _154  and  _156
REMARK   69  A    between atoms: _156  and  _157
REMARK   70  A    between atoms: _156  and  _159
REMARK   71  A    between atoms: _159  and  _160
REMARK   72  A    between atoms: _162  and  _164
REMARK   73  A    between atoms: _164  and  _165
REMARK   74  A    between atoms: _164  and  _167
REMARK   75  A    between atoms: _167  and  _168
REMARK   76  A    between atoms: _168  and  _169
REMARK   77  A    between atoms: _172  and  _174
REMARK   78  A    between atoms: _174  and  _175
REMARK   79  A    between atoms: _174  and  _177
REMARK   80  A    between atoms: _177  and  _178
REMARK   81  A    between atoms: _181  and  _183
REMARK   82  A    between atoms: _183  and  _184
REMARK   83  A    between atoms: _183  and  _186
REMARK   84  A    between atoms: _186  and  _187
REMARK   85  A    between atoms: _190  and  _192
REMARK   86  A    between atoms: _192  and  _193
REMARK   87  A    between atoms: _192  and  _195
REMARK   88  A    between atoms: _195  and  _196
REMARK   89  A    between atoms: _199  and  _201
REMARK   90  A    between atoms: _201  and  _202
REMARK   91  A    between atoms: _201  and  _204
REMARK   92  A    between atoms: _204  and  _205
REMARK   93  A    between atoms: _208  and  _210
REMARK   94  A    between atoms: _210  and  _211
REMARK   95  A    between atoms: _213  and  _215
REMARK   96  A    between atoms: _215  and  _216
REMARK   97  A    between atoms: _215  and  _218
REMARK   98  A    between atoms: _218  and  _219
REMARK   99  A    between atoms: _224  and  _226
REMARK  100  A    between atoms: _226  and  _227
REMARK  101  A    between atoms: _226  and  _229
REMARK  102  A    between atoms: _232  and  _234
REMARK  103  A    between atoms: _234  and  _235
REMARK  104  A    between atoms: _234  and  _237
REMARK  105  A    between atoms: _240  and  _242
REMARK  106  A    between atoms: _242  and  _243
REMARK  107  A    between atoms: _242  and  _245
REMARK  108  A    between atoms: _245  and  _246
REMARK  109  A    between atoms: _251  and  _253
REMARK  110  A    between atoms: _253  and  _254
REMARK  111  A    between atoms: _253  and  _256
REMARK  112  A    between atoms: _256  and  _257
REMARK  113  A    between atoms: _260  and  _262
REMARK  114  A    between atoms: _262  and  _263
REMARK  115  A    between atoms: _262  and  _265
REMARK  116  A    between atoms: _268  and  _270
REMARK  117  A    between atoms: _270  and  _271
REMARK  118  A    between atoms: _270  and  _273
REMARK  119  A    between atoms: _273  and  _274
REMARK  120  A    between atoms: _277  and  _279
REMARK  121  A    between atoms: _279  and  _280
REMARK  122  A    between atoms: _279  and  _282
REMARK  123  A    between atoms: _285  and  _287
REMARK  124  A    between atoms: _287  and  _288
REMARK  125  A    between atoms: _287  and  _290
REMARK  126  A    between atoms: _290  and  _291
REMARK  127  A    between atoms: _291  and  _292
REMARK  128  A    between atoms: _295  and  _297
REMARK  129  A    between atoms: _297  and  _298
REMARK  130  A    between atoms: _297  and  _300
REMARK  131  A    between atoms: _300  and  _301
REMARK  132  A    between atoms: _307  and  _309
REMARK  133  A    between atoms: _309  and  _310
REMARK  134  A    between atoms: _309  and  _312
REMARK  135  A    between atoms: _314  and  _316
REMARK  136  A    between atoms: _316  and  _317
REMARK  137  A    between atoms: _316  and  _319
REMARK  138  A    between atoms: _319  and  _320
REMARK  139  A    between atoms: _320  and  _321
REMARK  140  A    between atoms: _321  and  _322
REMARK  141  A    between atoms: _322  and  _323
REMARK  142  A    between atoms: _327  and  _329
REMARK  143  A    between atoms: _329  and  _330
REMARK  144  A    between atoms: _329  and  _332
REMARK  145  A    between atoms: _332  and  _333
REMARK  146  A    between atoms: _339  and  _341
REMARK  147  A    between atoms: _341  and  _342
REMARK  148  A    between atoms: _344  and  _346
REMARK  149  A    between atoms: _346  and  _347
REMARK  150  A    between atoms: _346  and  _349
REMARK  151  A    between atoms: _349  and  _350
REMARK  152  A    between atoms: _355  and  _357
REMARK  153  A    between atoms: _357  and  _358
REMARK  154  A    between atoms: _360  and  _362
REMARK  155  A    between atoms: _362  and  _363
REMARK  156  A    between atoms: _362  and  _365
REMARK  157  A    between atoms: _365  and  _366
REMARK  158  A    between atoms: _366  and  _367
REMARK  159  A    between atoms: _369  and  _371
REMARK  160  A    between atoms: _371  and  _372
REMARK  161  A    between atoms: _371  and  _374
REMARK  162  A    between atoms: _374  and  _375
REMARK  163  A    between atoms: _381  and  _383
REMARK  164  A    between atoms: _383  and  _384
REMARK  165  A    between atoms: _383  and  _386
REMARK  166  A    between atoms: _386  and  _387
REMARK  167  A    between atoms: _390  and  _392
REMARK  168  A    between atoms: _392  and  _393
REMARK  169  A    between atoms: _392  and  _395
REMARK  170  A    between atoms: _397  and  _399
REMARK  171  A    between atoms: _399  and  _400
REMARK  172  A    between atoms: _399  and  _402
REMARK  173  A    between atoms: _402  and  _403
REMARK  174  A    between atoms: _406  and  _408
REMARK  175  A    between atoms: _408  and  _409
REMARK  176  A    between atoms: _408  and  _411
REMARK  177  A    between atoms: _411  and  _412
REMARK  178  A    between atoms: _417  and  _419
REMARK  179  A    between atoms: _419  and  _420
REMARK  180  A    between atoms: _419  and  _422
REMARK  181  A    between atoms: _422  and  _423
REMARK  182  A    between atoms: _423  and  _424
REMARK  183  A    between atoms: _424  and  _425
REMARK  184  A    between atoms: _434  and  _436
REMARK  185  A    between atoms: _436  and  _437
REMARK  186  A    between atoms: _436  and  _439
REMARK  187  A    between atoms: _439  and  _440
REMARK  188  A    between atoms: _443  and  _445
REMARK  189  A    between atoms: _445  and  _446
REMARK  190  A    between atoms: _445  and  _448
REMARK  191  A    between atoms: _448  and  _449
REMARK  192  A    between atoms: _452  and  _454
REMARK  193  A    between atoms: _454  and  _455
REMARK  194  A    between atoms: _454  and  _457
REMARK  195  A    between atoms: _457  and  _458
REMARK  196  A    between atoms: _458  and  _459
REMARK  197  A    between atoms: _459  and  _460
REMARK  198  A    between atoms: _469  and  _471
REMARK  199  A    between atoms: _471  and  _472
REMARK  200  A    between atoms: _471  and  _474
REMARK  201  A    between atoms: _474  and  _475
REMARK  202  A    between atoms: _480  and  _482
REMARK  203  A    between atoms: _482  and  _483
REMARK  204  A    between atoms: _482  and  _485
REMARK  205  A    between atoms: _485  and  _486
REMARK  206  A    between atoms: _489  and  _491
REMARK  207  A    between atoms: _491  and  _492
REMARK  208  A    between atoms: _491  and  _494
REMARK  209  A    between atoms: _494  and  _495
REMARK  210  A    between atoms: _498  and  _500
REMARK  211  A    between atoms: _500  and  _501
REMARK  212  A    between atoms: _500  and  _503
REMARK  213  A    between atoms: _503  and  _504
REMARK  214  A    between atoms: _507  and  _509
REMARK  215  A    between atoms: _509  and  _510
REMARK  216  A    between atoms: _509  and  _512
REMARK  217  A    between atoms: _512  and  _513
REMARK  218  A    between atoms: _515  and  _517
REMARK  219  A    between atoms: _517  and  _518
REMARK  220  A    between atoms: _517  and  _520
REMARK  221  A    between atoms: _520  and  _521
REMARK  222  A    between atoms: _521  and  _522
REMARK  223  A    between atoms: _522  and  _523
REMARK  224  A    between atoms: _523  and  _524
REMARK  225  A    between atoms: _528  and  _530
REMARK  226  A    between atoms: _530  and  _531
REMARK  227  A    between atoms: _530  and  _533
REMARK  228  A    between atoms: _533  and  _534
REMARK  229  A    between atoms: _537  and  _539
REMARK  230  A    between atoms: _539  and  _540
REMARK  231  A    between atoms: _539  and  _542
REMARK  232  A    between atoms: _544  and  _546
REMARK  233  A    between atoms: _546  and  _547
REMARK  234  A    between atoms: _546  and  _549
REMARK  235  A    between atoms: _549  and  _550
REMARK  236  A    between atoms: _553  and  _555
REMARK  237  A    between atoms: _555  and  _556
REMARK  238  A    between atoms: _555  and  _558
REMARK  239  A    between atoms: _558  and  _559
REMARK  240  A    between atoms: _565  and  _567
REMARK  241  A    between atoms: _567  and  _568
REMARK  242  A    between atoms: _570  and  _572
REMARK  243  A    between atoms: _572  and  _573
REMARK  244  A    between atoms: _572  and  _575
REMARK  245  A    between atoms: _575  and  _576
REMARK  246  A    between atoms: _579  and  _581
REMARK  247  A    between atoms: _581  and  _582
REMARK  248  A    between atoms: _585  and  _587
REMARK  249  A    between atoms: _587  and  _588
REMARK  250  A    between atoms: _587  and  _590
REMARK  251  A    between atoms: _590  and  _591
REMARK  252  A    between atoms: _591  and  _592
REMARK  253  A    between atoms: _592  and  _593
REMARK                            x       y       z     vdW  Elec       q    Type
REMARK                         _______ _______ _______ _____ _____    ______ ____
ROOT
ATOM      1  CA  LEU A   1     -31.937  -9.628 -14.238  0.00  0.00    +0.133 C 
ENDROOT
BRANCH   1   2
ATOM      2  N   LEU A   1     -32.157 -10.987 -13.781  0.00  0.00    -0.239 NA
ATOM      3  H   LEU A   1     -32.136 -11.762 -14.474  0.00  0.00    +0.142 HD
ENDBRANCH   1   2
BRANCH   1   4
ATOM      4  C   LEU A   1     -33.247  -8.849 -14.263  0.00  0.00    +0.224 C 
ATOM      5  O   LEU A   1     -33.265  -7.646 -13.991  0.00  0.00    -0.287 OA
ENDBRANCH   1   4
BRANCH   1   6
ATOM      6  CB  LEU A   1     -31.274  -9.604 -15.617  0.00  0.00    +0.025 C 
BRANCH   6   7
ATOM      7  CG  LEU A   1     -30.873  -8.217 -16.154  0.00  0.00    +0.002 C 
ATOM      8  CD2 LEU A   1     -29.904  -7.484 -15.213  0.00  0.00    +0.000 C 
ATOM      9  CD1 LEU A   1     -30.297  -8.359 -17.559  0.00  0.00    +0.000 C 
ENDBRANCH   6   7
ENDBRANCH   1   6
TORSDOF 4
REMARK  Name = ../refined-set-2016/4asd/4asd_pocket.pdb
REMARK  253 active torsions:
REMARK  status: ('A' for Active; 'I' for Inactive)
REMARK    1  A    between atoms: _1  and  _3
REMARK    2  A    between atoms: _3  and  _4
REMARK    3  A    between atoms: _3  and  _6
REMARK    4  A    between atoms: _6  and  _7
REMARK    5  A    between atoms: _10  and  _12
REMARK    6  A    between atoms: _12  and  _13
REMARK    7  A    between atoms: _12  and  _15
REMARK    8  A    between atoms: _15  and  _16
REMARK    9  A    between atoms: _19  and  _21
REMARK   10  A    between atoms: _21  and  _22
REMARK   11  A    between atoms: _21  and  _24
REMARK   12  A    between atoms: _24  and  _25
REMARK   13  A    between atoms: _25  and  _26
REMARK   14  A    between atoms: _26  and  _27
REMARK   15  A    between atoms: _27  and  _28
REMARK   16  A    between atoms: _33  and  _34
REMARK   17  A    between atoms: _39  and  _41
REMARK   18  A    between atoms: _41  and  _42
REMARK   19  A    between atoms: _41  and  _44
REMARK   20  A    between atoms: _44  and  _45
REMARK   21  A    between atoms: _48  and  _50
REMARK   22  A    between atoms: _50  and  _51
REMARK   23  A    between atoms: _53  and  _55
REMARK   24  A    between atoms: _55  and  _56
REMARK   25  A    between atoms: _55  and  _58
REMARK   26  A    between atoms: _58  and  _59
REMARK   27  A    between atoms: _59  and  _60
REMARK   28  A    between atoms: _65  and  _67
REMARK   29  A    between atoms: _67  and  _68
REMARK   30  A    between atoms: _67  and  _70
REMARK   31  A    between atoms: _73  and  _75
REMARK   32  A    between atoms: _75  and  _76
REMARK   33  A    between atoms: _75  and  _78
REMARK   34  A    between atoms: _78  and  _79
REMARK   35  A    between atoms: _82  and  _84
REMARK   36  A    between atoms: _84  and  _85
REMARK   37  A    between atoms: _84  and  _87
REMARK   38  A    between atoms: _87  and  _88
REMARK   39  A    between atoms: _88  and  _89
REMARK   40  A    between atoms: _92  and  _94
REMARK   41  A    between atoms: _94  and  _95
REMARK   42  A    between atoms: _94  and  _97
REMARK   43  A    between atoms: _97  and  _98
REMARK   44  A    between atoms: _101  and  _103
REMARK   45  A    between atoms: _103  and  _104
REMARK   46  A    between atoms: _103  and  _106
REMARK   47  A    between atoms: _109  and  _111
REMARK   48  A    between atoms: _111  and  _112
REMARK   49  A    between atoms: _115  and  _117
REMARK   50  A    between atoms: _117  and  _118
REMARK   51  A    between atoms: _117  and  _120
REMARK   52  A    between atoms: _123  and  _125
REMARK   53  A    between atoms: _125  and  _126
REMARK   54  A    between atoms: _125  and  _128
REMARK   55  A    between atoms: _128  and  _129
REMARK   56  A    between atoms: _129  and  _130
REMARK   57  A    between atoms: _130  and  _131
REMARK   58  A    between atoms: _131  and  _132
REMARK   59  A    between atoms: _136  and  _138
REMARK   60  A    between atoms: _138  and  _139
REMARK   61  A    between atoms: _138  and  _141
REMARK   62  A    between atoms: _141  and  _142
REMARK   63  A    between atoms: _142  and  _143
REMARK   64  A    between atoms: _145  and  _147
REMARK   65  A    between atoms: _147  and  _148
REMARK   66  A    between atoms: _147  and  _150
REMARK   67  A    between atoms: _150  and  _151
REMARK   68  A    between atoms: _154  and  _156
REMARK   69  A    between atoms: _156  and  _157
REMARK   70  A    between atoms: _156  and  _159
REMARK   71  A    between atoms: _159  and  _160
REMARK   72  A    between atoms: _162  and  _164
REMARK   73  A    between atoms: _164  and  _165
REMARK   74  A    between atoms: _164  and  _167
REMARK   75  A    between atoms: _167  and  _168
REMARK   76  A    between atoms: _168  and  _169
REMARK   77  A    between atoms: _172  and  _174
REMARK   78  A    between atoms: _174  and  _175
REMARK   79  A    between atoms: _174  and  _177
REMARK   80  A    between atoms: _177  and  _178
REMARK   81  A    between atoms: _181  and  _183
REMARK   82  A    between atoms: _183  and  _184
REMARK   83  A    between atoms: _183  and  _186
REMARK   84  A    between atoms: _186  and  _187
REMARK   85  A    between atoms: _190  and  _192
REMARK   86  A    between atoms: _192  and  _193
REMARK   87  A    between atoms: _192  and  _195
REMARK   88  A    between atoms: _195  and  _196
REMARK   89  A    between atoms: _199  and  _201
REMARK   90  A    between atoms: _201  and  _202
REMARK   91  A    between atoms: _201  and  _204
REMARK   92  A    between atoms: _204  and  _205
REMARK   93  A    between atoms: _208  and  _210
REMARK   94  A    between atoms: _210  and  _211
REMARK   95  A    between atoms: _213  and  _215
REMARK   96  A    between atoms: _215  and  _216
REMARK   97  A    between atoms: _215  and  _218
REMARK   98  A    between atoms: _218  and  _219
REMARK   99  A    between atoms: _224  and  _226
REMARK  100  A    between atoms: _226  and  _227
REMARK  101  A    between atoms: _226  and  _229
REMARK  102  A    between atoms: _232  and  _234
REMARK  103  A    between atoms: _234  and  _235
REMARK  104  A    between atoms: _234  and  _237
REMARK  105  A    between atoms: _240  and  _242
REMARK  106  A    between atoms: _242  and  _243
REMARK  107  A    between atoms: _242  and  _245
REMARK  108  A    between atoms: _245  and  _246
REMARK  109  A    between atoms: _251  and  _253
REMARK  110  A    between atoms: _253  and  _254
REMARK  111  A    between atoms: _253  and  _256
REMARK  112  A    between atoms: _256  and  _257
REMARK  113  A    between atoms: _260  and  _262
REMARK  114  A    between atoms: _262  and  _263
REMARK  115  A    between atoms: _262  and  _265
REMARK  116  A    between atoms: _268  and  _270
REMARK  117  A    between atoms: _270  and  _271
REMARK  118  A    between atoms: _270  and  _273
REMARK  119  A    between atoms: _273  and  _274
REMARK  120  A    between atoms: _277  and  _279
REMARK  121  A    between atoms: _279  and  _280
REMARK  122  A    between atoms: _279  and  _282
REMARK  123  A    between atoms: _285  and  _287
REMARK  124  A    between atoms: _287  and  _288
REMARK  125  A    between atoms: _287  and  _290
REMARK  126  A    between atoms: _290  and  _291
REMARK  127  A    between atoms: _291  and  _292
REMARK  128  A    between atoms: _295  and  _297
REMARK  129  A    between atoms: _297  and  _298
REMARK  130  A    between atoms: _297  and  _300
REMARK  131  A    between atoms: _300  and  _301
REMARK  132  A    between atoms: _307  and  _309
REMARK  133  A    between atoms: _309  and  _310
REMARK  134  A    between atoms: _309  and  _312
REMARK  135  A    between atoms: _314  and  _316
REMARK  136  A    between atoms: _316  and  _317
REMARK  137  A    between atoms: _316  and  _319
REMARK  138  A    between atoms: _319  and  _320
REMARK  139  A    between atoms: _320  and  _321
REMARK  140  A    between atoms: _321  and  _322
REMARK  141  A    between atoms: _322  and  _323
REMARK  142  A    between atoms: _327  and  _329
REMARK  143  A    between atoms: _329  and  _330
REMARK  144  A    between atoms: _329  and  _332
REMARK  145  A    between atoms: _332  and  _333
REMARK  146  A    between atoms: _339  and  _341
REMARK  147  A    between atoms: _341  and  _342
REMARK  148  A    between atoms: _344  and  _346
REMARK  149  A    between atoms: _346  and  _347
REMARK  150  A    between atoms: _346  and  _349
REMARK  151  A    between atoms: _349  and  _350
REMARK  152  A    between atoms: _355  and  _357
REMARK  153  A    between atoms: _357  and  _358
REMARK  154  A    between atoms: _360  and  _362
REMARK  155  A    between atoms: _362  and  _363
REMARK  156  A    between atoms: _362  and  _365
REMARK  157  A    between atoms: _365  and  _366
REMARK  158  A    between atoms: _366  and  _367
REMARK  159  A    between atoms: _369  and  _371
REMARK  160  A    between atoms: _371  and  _372
REMARK  161  A    between atoms: _371  and  _374
REMARK  162  A    between atoms: _374  and  _375
REMARK  163  A    between atoms: _381  and  _383
REMARK  164  A    between atoms: _383  and  _384
REMARK  165  A    between atoms: _383  and  _386
REMARK  166  A    between atoms: _386  and  _387
REMARK  167  A    between atoms: _390  and  _392
REMARK  168  A    between atoms: _392  and  _393
REMARK  169  A    between atoms: _392  and  _395
REMARK  170  A    between atoms: _397  and  _399
REMARK  171  A    between atoms: _399  and  _400
REMARK  172  A    between atoms: _399  and  _402
REMARK  173  A    between atoms: _402  and  _403
REMARK  174  A    between atoms: _406  and  _408
REMARK  175  A    between atoms: _408  and  _409
REMARK  176  A    between atoms: _408  and  _411
REMARK  177  A    between atoms: _411  and  _412
REMARK  178  A    between atoms: _417  and  _419
REMARK  179  A    between atoms: _419  and  _420
REMARK  180  A    between atoms: _419  and  _422
REMARK  181  A    between atoms: _422  and  _423
REMARK  182  A    between atoms: _423  and  _424
REMARK  183  A    between atoms: _424  and  _425
REMARK  184  A    between atoms: _434  and  _436
REMARK  185  A    between atoms: _436  and  _437
REMARK  186  A    between atoms: _436  and  _439
REMARK  187  A    between atoms: _439  and  _440
REMARK  188  A    between atoms: _443  and  _445
REMARK  189  A    between atoms: _445  and  _446
REMARK  190  A    between atoms: _445  and  _448
REMARK  191  A    between atoms: _448  and  _449
REMARK  192  A    between atoms: _452  and  _454
REMARK  193  A    between atoms: _454  and  _455
REMARK  194  A    between atoms: _454  and  _457
REMARK  195  A    between atoms: _457  and  _458
REMARK  196  A    between atoms: _458  and  _459
REMARK  197  A    between atoms: _459  and  _460
REMARK  198  A    between atoms: _469  and  _471
REMARK  199  A    between atoms: _471  and  _472
REMARK  200  A    between atoms: _471  and  _474
REMARK  201  A    between atoms: _474  and  _475
REMARK  202  A    between atoms: _480  and  _482
REMARK  203  A    between atoms: _482  and  _483
REMARK  204  A    between atoms: _482  and  _485
REMARK  205  A    between atoms: _485  and  _486
REMARK  206  A    between atoms: _489  and  _491
REMARK  207  A    between atoms: _491  and  _492
REMARK  208  A    between atoms: _491  and  _494
REMARK  209  A    between atoms: _494  and  _495
REMARK  210  A    between atoms: _498  and  _500
REMARK  211  A    between atoms: _500  and  _501
REMARK  212  A    between atoms: _500  and  _503
REMARK  213  A    between atoms: _503  and  _504
REMARK  214  A    between atoms: _507  and  _509
REMARK  215  A    between atoms: _509  and  _510
REMARK  216  A    between atoms: _509  and  _512
REMARK  217  A    between atoms: _512  and  _513
REMARK  218  A    between atoms: _515  and  _517
REMARK  219  A    between atoms: _517  and  _518
REMARK  220  A    between atoms: _517  and  _520
REMARK  221  A    between atoms: _520  and  _521
REMARK  222  A    between atoms: _521  and  _522
REMARK  223  A    between atoms: _522  and  _523
REMARK  224  A    between atoms: _523  and  _524
REMARK  225  A    between atoms: _528  and  _530
REMARK  226  A    between atoms: _530  and  _531
REMARK  227  A    between atoms: _530  and  _533
REMARK  228  A    between atoms: _533  and  _534
REMARK  229  A    between atoms: _537  and  _539
REMARK  230  A    between atoms: _539  and  _540
REMARK  231  A    between atoms: _539  and  _542
REMARK  232  A    between atoms: _544  and  _546
REMARK  233  A    between atoms: _546  and  _547
REMARK  234  A    between atoms: _546  and  _549
REMARK  235  A    between atoms: _549  and  _550
REMARK  236  A    between atoms: _553  and  _555
REMARK  237  A    between atoms: _555  and  _556
REMARK  238  A    between atoms: _555  and  _558
REMARK  239  A    between atoms: _558  and  _559
REMARK  240  A    between atoms: _565  and  _567
REMARK  241  A    between atoms: _567  and  _568
REMARK  242  A    between atoms: _570  and  _572
REMARK  243  A    between atoms: _572  and  _573
REMARK  244  A    between atoms: _572  and  _575
REMARK  245  A    between atoms: _575  and  _576
REMARK  246  A    between atoms: _579  and  _581
REMARK  247  A    between atoms: _581  and  _582
REMARK  248  A    between atoms: _585  and  _587
REMARK  249  A    between atoms: _587  and  _588
REMARK  250  A    between atoms: _587  and  _590
REMARK  251  A    between atoms: _590  and  _591
REMARK  252  A    between atoms: _591  and  _592
REMARK  253  A    between atoms: _592  and  _593
REMARK                            x       y       z     vdW  Elec       q    Type
REMARK                         _______ _______ _______ _____ _____    ______ ____
ROOT
ATOM      1  CA  GLU A   2     -33.049  -6.827 -10.459  0.00  0.00    +0.149 C 
ENDROOT
BRANCH   1   4
ATOM      2  C   SER A   1     -35.115  -8.077 -10.248  0.00  0.00    +0.241 C 
ATOM      3  O   SER A   1     -35.530  -7.286  -9.408  0.00  0.00    -0.274 OA
ATOM      4  N   GLU A   2     -33.903  -7.953 -10.800  0.00  0.00    -0.297 N 
ATOM      5  H   GLU A   2     -33.569  -8.667 -11.478  0.00  0.00    +0.150 HD
BRANCH   2   6
ATOM      6  CA  SER A   1     -36.039  -9.199 -10.788  0.00  0.00    +0.174 C 
BRANCH   6   7
ATOM      7  N   SER A   1     -35.722  -9.521 -12.165  0.00  0.00    -0.236 NA
ATOM      8  H   SER A   1     -35.265 -10.421 -12.414  0.00  0.00    +0.142 HD
ENDBRANCH   6   7
BRANCH   6   9
ATOM      9  CB  SER A   1     -36.151 -10.477  -9.920  0.00  0.00    +0.163 C 
BRANCH   9  10
ATOM     10  OG  SER A   1     -34.894 -10.924  -9.516  0.00  0.00    -0.380 OA
ATOM     11  H   SER A   1     -34.346 -11.131 -10.314  0.00  0.00    +0.211 HD
ENDBRANCH   9  10
ENDBRANCH   6   9
ENDBRANCH   2   6
ENDBRANCH   1   4
BRANCH   1  12
ATOM     12  C   GLU A   2     -33.689  -5.521 -10.952  0.00  0.00    +0.241 C 
ATOM     13  O   GLU A   2     -33.754  -4.548 -10.211  0.00  0.00    -0.273 OA
ATOM     14  N   LEU A   3     -34.166  -5.515 -12.192  0.00  0.00    -0.298 N 
ATOM     15  H   LEU A   3     -34.018  -6.346 -12.799  0.00  0.00    +0.150 HD
BRANCH  14  16
ATOM     16  CA  LEU A   3     -34.897  -4.360 -12.721  0.00  0.00    +0.137 C 
BRANCH  16  17
ATOM     17  C   LEU A   3     -36.082  -3.968 -11.808  0.00  0.00    +0.227 C 
ATOM     18  O   LEU A   3     -36.273  -2.790 -11.508  0.00  0.00    -0.286 OA
ENDBRANCH  16  17
BRANCH  16  19
ATOM     19  CB  LEU A   3     -35.367  -4.626 -14.154  0.00  0.00    +0.028 C 
BRANCH  19  20
ATOM     20  CG  LEU A   3     -36.372  -3.651 -14.804  0.00  0.00    +0.002 C 
ATOM     21  CD2 LEU A   3     -35.796  -2.231 -14.898  0.00  0.00    +0.000 C 
ATOM     22  CD1 LEU A   3     -36.776  -4.177 -16.187  0.00  0.00    +0.000 C 
ENDBRANCH  19  20
ENDBRANCH  16  19
ENDBRANCH  14  16
ENDBRANCH   1  12
BRANCH   1  23
ATOM     23  CB  GLU A   2     -31.620  -6.971 -11.010  0.00  0.00    +0.041 C 
BRANCH  23  24
ATOM     24  CG  GLU A   2     -30.817  -5.655 -10.879  0.00  0.00    +0.116 C 
BRANCH  24  25
ATOM     25  CD  GLU A   2     -29.394  -5.749 -11.383  0.00  0.00    +0.365 C 
ATOM     26  OE2 GLU A   2     -28.691  -4.728 -11.336  0.00  0.00    -0.246 OA
ATOM     27  OE1 GLU A   2     -28.963  -6.855 -11.782  0.00  0.00    -0.246 OA
ENDBRANCH  24  25
ENDBRANCH  23  24
ENDBRANCH   1  23
TORSDOF 13
REMARK  Name = ../refined-set-2016/4asd/4asd_pocket.pdb
REMARK  253 active torsions:
REMARK  status: ('A' for Active; 'I' for Inactive)
REMARK    1  A    between atoms: _1  and  _3
REMARK    2  A    between atoms: _3  and  _4
REMARK    3  A    between atoms: _3  and  _6
REMARK    4  A    between atoms: _6  and  _7
REMARK    5  A    between atoms: _10  and  _12
REMARK    6  A    between atoms: _12  and  _13
REMARK    7  A    between atoms: _12  and  _15
REMARK    8  A    between atoms: _15  and  _16
REMARK    9  A    between atoms: _19  and  _21
REMARK   10  A    between atoms: _21  and  _22
REMARK   11  A    between atoms: _21  and  _24
REMARK   12  A    between atoms: _24  and  _25
REMARK   13  A    between atoms: _25  and  _26
REMARK   14  A    between atoms: _26  and  _27
REMARK   15  A    between atoms: _27  and  _28
REMARK   16  A    between atoms: _33  and  _34
REMARK   17  A    between atoms: _39  and  _41
REMARK   18  A    between atoms: _41  and  _42
REMARK   19  A    between atoms: _41  and  _44
REMARK   20  A    between atoms: _44  and  _45
REMARK   21  A    between atoms: _48  and  _50
REMARK   22  A    between atoms: _50  and  _51
REMARK   23  A    between atoms: _53  and  _55
REMARK   24  A    between atoms: _55  and  _56
REMARK   25  A    between atoms: _55  and  _58
REMARK   26  A    between atoms: _58  and  _59
REMARK   27  A    between atoms: _59  and  _60
REMARK   28  A    between atoms: _65  and  _67
REMARK   29  A    between atoms: _67  and  _68
REMARK   30  A    between atoms: _67  and  _70
REMARK   31  A    between atoms: _73  and  _75
REMARK   32  A    between atoms: _75  and  _76
REMARK   33  A    between atoms: _75  and  _78
REMARK   34  A    between atoms: _78  and  _79
REMARK   35  A    between atoms: _82  and  _84
REMARK   36  A    between atoms: _84  and  _85
REMARK   37  A    between atoms: _84  and  _87
REMARK   38  A    between atoms: _87  and  _88
REMARK   39  A    between atoms: _88  and  _89
REMARK   40  A    between atoms: _92  and  _94
REMARK   41  A    between atoms: _94  and  _95
REMARK   42  A    between atoms: _94  and  _97
REMARK   43  A    between atoms: _97  and  _98
REMARK   44  A    between atoms: _101  and  _103
REMARK   45  A    between atoms: _103  and  _104
REMARK   46  A    between atoms: _103  and  _106
REMARK   47  A    between atoms: _109  and  _111
REMARK   48  A    between atoms: _111  and  _112
REMARK   49  A    between atoms: _115  and  _117
REMARK   50  A    between atoms: _117  and  _118
REMARK   51  A    between atoms: _117  and  _120
REMARK   52  A    between atoms: _123  and  _125
REMARK   53  A    between atoms: _125  and  _126
REMARK   54  A    between atoms: _125  and  _128
REMARK   55  A    between atoms: _128  and  _129
REMARK   56  A    between atoms: _129  and  _130
REMARK   57  A    between atoms: _130  and  _131
REMARK   58  A    between atoms: _131  and  _132
REMARK   59  A    between atoms: _136  and  _138
REMARK   60  A    between atoms: _138  and  _139
REMARK   61  A    between atoms: _138  and  _141
REMARK   62  A    between atoms: _141  and  _142
REMARK   63  A    between atoms: _142  and  _143
REMARK   64  A    between atoms: _145  and  _147
REMARK   65  A    between atoms: _147  and  _148
REMARK   66  A    between atoms: _147  and  _150
REMARK   67  A    between atoms: _150  and  _151
REMARK   68  A    between atoms: _154  and  _156
REMARK   69  A    between atoms: _156  and  _157
REMARK   70  A    between atoms: _156  and  _159
REMARK   71  A    between atoms: _159  and  _160
REMARK   72  A    between atoms: _162  and  _164
REMARK   73  A    between atoms: _164  and  _165
REMARK   74  A    between atoms: _164  and  _167
REMARK   75  A    between atoms: _167  and  _168
REMARK   76  A    between atoms: _168  and  _169
REMARK   77  A    between atoms: _172  and  _174
REMARK   78  A    between atoms: _174  and  _175
REMARK   79  A    between atoms: _174  and  _177
REMARK   80  A    between atoms: _177  and  _178
REMARK   81  A    between atoms: _181  and  _183
REMARK   82  A    between atoms: _183  and  _184
REMARK   83  A    between atoms: _183  and  _186
REMARK   84  A    between atoms: _186  and  _187
REMARK   85  A    between atoms: _190  and  _192
REMARK   86  A    between atoms: _192  and  _193
REMARK   87  A    between atoms: _192  and  _195
REMARK   88  A    between atoms: _195  and  _196
REMARK   89  A    between atoms: _199  and  _201
REMARK   90  A    between atoms: _201  and  _202
REMARK   91  A    between atoms: _201  and  _204
REMARK   92  A    between atoms: _204  and  _205
REMARK   93  A    between atoms: _208  and  _210
REMARK   94  A    between atoms: _210  and  _211
REMARK   95  A    between atoms: _213  and  _215
REMARK   96  A    between atoms: _215  and  _216
REMARK   97  A    between atoms: _215  and  _218
REMARK   98  A    between atoms: _218  and  _219
REMARK   99  A    between atoms: _224  and  _226
REMARK  100  A    between atoms: _226  and  _227
REMARK  101  A    between atoms: _226  and  _229
REMARK  102  A    between atoms: _232  and  _234
REMARK  103  A    between atoms: _234  and  _235
REMARK  104  A    between atoms: _234  and  _237
REMARK  105  A    between atoms: _240  and  _242
REMARK  106  A    between atoms: _242  and  _243
REMARK  107  A    between atoms: _242  and  _245
REMARK  108  A    between atoms: _245  and  _246
REMARK  109  A    between atoms: _251  and  _253
REMARK  110  A    between atoms: _253  and  _254
REMARK  111  A    between atoms: _253  and  _256
REMARK  112  A    between atoms: _256  and  _257
REMARK  113  A    between atoms: _260  and  _262
REMARK  114  A    between atoms: _262  and  _263
REMARK  115  A    between atoms: _262  and  _265
REMARK  116  A    between atoms: _268  and  _270
REMARK  117  A    between atoms: _270  and  _271
REMARK  118  A    between atoms: _270  and  _273
REMARK  119  A    between atoms: _273  and  _274
REMARK  120  A    between atoms: _277  and  _279
REMARK  121  A    between atoms: _279  and  _280
REMARK  122  A    between atoms: _279  and  _282
REMARK  123  A    between atoms: _285  and  _287
REMARK  124  A    between atoms: _287  and  _288
REMARK  125  A    between atoms: _287  and  _290
REMARK  126  A    between atoms: _290  and  _291
REMARK  127  A    between atoms: _291  and  _292
REMARK  128  A    between atoms: _295  and  _297
REMARK  129  A    between atoms: _297  and  _298
REMARK  130  A    between atoms: _297  and  _300
REMARK  131  A    between atoms: _300  and  _301
REMARK  132  A    between atoms: _307  and  _309
REMARK  133  A    between atoms: _309  and  _310
REMARK  134  A    between atoms: _309  and  _312
REMARK  135  A    between atoms: _314  and  _316
REMARK  136  A    between atoms: _316  and  _317
REMARK  137  A    between atoms: _316  and  _319
REMARK  138  A    between atoms: _319  and  _320
REMARK  139  A    between atoms: _320  and  _321
REMARK  140  A    between atoms: _321  and  _322
REMARK  141  A    between atoms: _322  and  _323
REMARK  142  A    between atoms: _327  and  _329
REMARK  143  A    between atoms: _329  and  _330
REMARK  144  A    between atoms: _329  and  _332
REMARK  145  A    between atoms: _332  and  _333
REMARK  146  A    between atoms: _339  and  _341
REMARK  147  A    between atoms: _341  and  _342
REMARK  148  A    between atoms: _344  and  _346
REMARK  149  A    between atoms: _346  and  _347
REMARK  150  A    between atoms: _346  and  _349
REMARK  151  A    between atoms: _349  and  _350
REMARK  152  A    between atoms: _355  and  _357
REMARK  153  A    between atoms: _357  and  _358
REMARK  154  A    between atoms: _360  and  _362
REMARK  155  A    between atoms: _362  and  _363
REMARK  156  A    between atoms: _362  and  _365
REMARK  157  A    between atoms: _365  and  _366
REMARK  158  A    between atoms: _366  and  _367
REMARK  159  A    between atoms: _369  and  _371
REMARK  160  A    between atoms: _371  and  _372
REMARK  161  A    between atoms: _371  and  _374
REMARK  162  A    between atoms: _374  and  _375
REMARK  163  A    between atoms: _381  and  _383
REMARK  164  A    between atoms: _383  and  _384
REMARK  165  A    between atoms: _383  and  _386
REMARK  166  A    between atoms: _386  and  _387
REMARK  167  A    between atoms: _390  and  _392
REMARK  168  A    between atoms: _392  and  _393
REMARK  169  A    between atoms: _392  and  _395
REMARK  170  A    between atoms: _397  and  _399
REMARK  171  A    between atoms: _399  and  _400
REMARK  172  A    between atoms: _399  and  _402
REMARK  173  A    between atoms: _402  and  _403
REMARK  174  A    between atoms: _406  and  _408
REMARK  175  A    between atoms: _408  and  _409
REMARK  176  A    between atoms: _408  and  _411
REMARK  177  A    between atoms: _411  and  _412
REMARK  178  A    between atoms: _417  and  _419
REMARK  179  A    between atoms: _419  and  _420
REMARK  180  A    between atoms: _419  and  _422
REMARK  181  A    between atoms: _422  and  _423
REMARK  182  A    between atoms: _423  and  _424
REMARK  183  A    between atoms: _424  and  _425
REMARK  184  A    between atoms: _434  and  _436
REMARK  185  A    between atoms: _436  and  _437
REMARK  186  A    between atoms: _436  and  _439
REMARK  187  A    between atoms: _439  and  _440
REMARK  188  A    between atoms: _443  and  _445
REMARK  189  A    between atoms: _445  and  _446
REMARK  190  A    between atoms: _445  and  _448
REMARK  191  A    between atoms: _448  and  _449
REMARK  192  A    between atoms: _452  and  _454
REMARK  193  A    between atoms: _454  and  _455
REMARK  194  A    between atoms: _454  and  _457
REMARK  195  A    between atoms: _457  and  _458
REMARK  196  A    between atoms: _458  and  _459
REMARK  197  A    between atoms: _459  and  _460
REMARK  198  A    between atoms: _469  and  _471
REMARK  199  A    between atoms: _471  and  _472
REMARK  200  A    between atoms: _471  and  _474
REMARK  201  A    between atoms: _474  and  _475
REMARK  202  A    between atoms: _480  and  _482
REMARK  203  A    between atoms: _482  and  _483
REMARK  204  A    between atoms: _482  and  _485
REMARK  205  A    between atoms: _485  and  _486
REMARK  206  A    between atoms: _489  and  _491
REMARK  207  A    between atoms: _491  and  _492
REMARK  208  A    between atoms: _491  and  _494
REMARK  209  A    between atoms: _494  and  _495
REMARK  210  A    between atoms: _498  and  _500
REMARK  211  A    between atoms: _500  and  _501
REMARK  212  A    between atoms: _500  and  _503
REMARK  213  A    between atoms: _503  and  _504
REMARK  214  A    between atoms: _507  and  _509
REMARK  215  A    between atoms: _509  and  _510
REMARK  216  A    between atoms: _509  and  _512
REMARK  217  A    between atoms: _512  and  _513
REMARK  218  A    between atoms: _515  and  _517
REMARK  219  A    between atoms: _517  and  _518
REMARK  220  A    between atoms: _517  and  _520
REMARK  221  A    between atoms: _520  and  _521
REMARK  222  A    between atoms: _521  and  _522
REMARK  223  A    between atoms: _522  and  _523
REMARK  224  A    between atoms: _523  and  _524
REMARK  225  A    between atoms: _528  and  _530
REMARK  226  A    between atoms: _530  and  _531
REMARK  227  A    between atoms: _530  and  _533
REMARK  228  A    between atoms: _533  and  _534
REMARK  229  A    between atoms: _537  and  _539
REMARK  230  A    between atoms: _539  and  _540
REMARK  231  A    between atoms: _539  and  _542
REMARK  232  A    between atoms: _544  and  _546
REMARK  233  A    between atoms: _546  and  _547
REMARK  234  A    between atoms: _546  and  _549
REMARK  235  A    between atoms: _549  and  _550
REMARK  236  A    between atoms: _553  and  _555
REMARK  237  A    between atoms: _555  and  _556
REMARK  238  A    between atoms: _555  and  _558
REMARK  239  A    between atoms: _558  and  _559
REMARK  240  A    between atoms: _565  and  _567
REMARK  241  A    between atoms: _567  and  _568
REMARK  242  A    between atoms: _570  and  _572
REMARK  243  A    between atoms: _572  and  _573
REMARK  244  A    between atoms: _572  and  _575
REMARK  245  A    between atoms: _575  and  _576
REMARK  246  A    between atoms: _579  and  _581
REMARK  247  A    between atoms: _581  and  _582
REMARK  248  A    between atoms: _585  and  _587
REMARK  249  A    between atoms: _587  and  _588
REMARK  250  A    between atoms: _587  and  _590
REMARK  251  A    between atoms: _590  and  _591
REMARK  252  A    between atoms: _591  and  _592
REMARK  253  A    between atoms: _592  and  _593
REMARK                            x       y       z     vdW  Elec       q    Type
REMARK                         _______ _______ _______ _____ _____    ______ ____
ROOT
ATOM      1  C   ILE A   1     -35.565  -2.596  -7.418  0.00  0.00    +0.238 C 
ATOM      2  O   ILE A   1     -35.804  -1.757  -6.548  0.00  0.00    -0.274 OA
ATOM      3  N   LEU A   2     -34.866  -2.312  -8.514  0.00  0.00    -0.298 N 
ATOM      4  H   LEU A   2     -34.641  -3.072  -9.187  0.00  0.00    +0.150 HD
ENDROOT
BRANCH   1   5
ATOM      5  CA  ILE A   1     -36.092  -4.029  -7.275  0.00  0.00    +0.145 C 
BRANCH   5   6
ATOM      6  N   ILE A   1     -36.557  -4.603  -8.542  0.00  0.00    -0.238 NA
ATOM      7  H   ILE A   1     -36.046  -5.402  -8.968  0.00  0.00    +0.142 HD
ENDBRANCH   5   6
BRANCH   5   8
ATOM      8  CB  ILE A   1     -35.082  -4.935  -6.497  0.00  0.00    +0.025 C 
ATOM      9  CG2 ILE A   1     -33.646  -4.709  -6.922  0.00  0.00    +0.002 C 
BRANCH   8  10
ATOM     10  CG1 ILE A   1     -35.160  -4.622  -4.997  0.00  0.00    +0.002 C 
ATOM     11  CD1 ILE A   1     -36.464  -5.114  -4.334  0.00  0.00    +0.000 C 
ENDBRANCH   8  10
ENDBRANCH   5   8
ENDBRANCH   1   5
BRANCH   3  12
ATOM     12  CA  LEU A   2     -34.406  -0.945  -8.790  0.00  0.00    +0.137 C 
BRANCH  12  13
ATOM     13  C   LEU A   2     -35.593   0.012  -8.951  0.00  0.00    +0.227 C 
ATOM     14  O   LEU A   2     -35.565   1.146  -8.456  0.00  0.00    -0.286 OA
ENDBRANCH  12  13
BRANCH  12  15
ATOM     15  CB  LEU A   2     -33.510  -0.912 -10.042  0.00  0.00    +0.028 C 
BRANCH  15  16
ATOM     16  CG  LEU A   2     -32.108  -1.527  -9.890  0.00  0.00    +0.002 C 
ATOM     17  CD2 LEU A   2     -31.320  -0.835  -8.778  0.00  0.00    +0.000 C 
ATOM     18  CD1 LEU A   2     -31.335  -1.455 -11.210  0.00  0.00    +0.000 C 
ENDBRANCH  15  16
ENDBRANCH  12  15
ENDBRANCH   3  12
TORSDOF 8
REMARK  Name = ../refined-set-2016/4asd/4asd_pocket.pdb
REMARK  253 active torsions:
REMARK  status: ('A' for Active; 'I' for Inactive)
REMARK    1  A    between atoms: _1  and  _3
REMARK    2  A    between atoms: _3  and  _4
REMARK    3  A    between atoms: _3  and  _6
REMARK    4  A    between atoms: _6  and  _7
REMARK    5  A    between atoms: _10  and  _12
REMARK    6  A    between atoms: _12  and  _13
REMARK    7  A    between atoms: _12  and  _15
REMARK    8  A    between atoms: _15  and  _16
REMARK    9  A    between atoms: _19  and  _21
REMARK   10  A    between atoms: _21  and  _22
REMARK   11  A    between atoms: _21  and  _24
REMARK   12  A    between atoms: _24  and  _25
REMARK   13  A    between atoms: _25  and  _26
REMARK   14  A    between atoms: _26  and  _27
REMARK   15  A    between atoms: _27  and  _28
REMARK   16  A    between atoms: _33  and  _34
REMARK   17  A    between atoms: _39  and  _41
REMARK   18  A    between atoms: _41  and  _42
REMARK   19  A    between atoms: _41  and  _44
REMARK   20  A    between atoms: _44  and  _45
REMARK   21  A    between atoms: _48  and  _50
REMARK   22  A    between atoms: _50  and  _51
REMARK   23  A    between atoms: _53  and  _55
REMARK   24  A    between atoms: _55  and  _56
REMARK   25  A    between atoms: _55  and  _58
REMARK   26  A    between atoms: _58  and  _59
REMARK   27  A    between atoms: _59  and  _60
REMARK   28  A    between atoms: _65  and  _67
REMARK   29  A    between atoms: _67  and  _68
REMARK   30  A    between atoms: _67  and  _70
REMARK   31  A    between atoms: _73  and  _75
REMARK   32  A    between atoms: _75  and  _76
REMARK   33  A    between atoms: _75  and  _78
REMARK   34  A    between atoms: _78  and  _79
REMARK   35  A    between atoms: _82  and  _84
REMARK   36  A    between atoms: _84  and  _85
REMARK   37  A    between atoms: _84  and  _87
REMARK   38  A    between atoms: _87  and  _88
REMARK   39  A    between atoms: _88  and  _89
REMARK   40  A    between atoms: _92  and  _94
REMARK   41  A    between atoms: _94  and  _95
REMARK   42  A    between atoms: _94  and  _97
REMARK   43  A    between atoms: _97  and  _98
REMARK   44  A    between atoms: _101  and  _103
REMARK   45  A    between atoms: _103  and  _104
REMARK   46  A    between atoms: _103  and  _106
REMARK   47  A    between atoms: _109  and  _111
REMARK   48  A    between atoms: _111  and  _112
REMARK   49  A    between atoms: _115  and  _117
REMARK   50  A    between atoms: _117  and  _118
REMARK   51  A    between atoms: _117  and  _120
REMARK   52  A    between atoms: _123  and  _125
REMARK   53  A    between atoms: _125  and  _126
REMARK   54  A    between atoms: _125  and  _128
REMARK   55  A    between atoms: _128  and  _129
REMARK   56  A    between atoms: _129  and  _130
REMARK   57  A    between atoms: _130  and  _131
REMARK   58  A    between atoms: _131  and  _132
REMARK   59  A    between atoms: _136  and  _138
REMARK   60  A    between atoms: _138  and  _139
REMARK   61  A    between atoms: _138  and  _141
REMARK   62  A    between atoms: _141  and  _142
REMARK   63  A    between atoms: _142  and  _143
REMARK   64  A    between atoms: _145  and  _147
REMARK   65  A    between atoms: _147  and  _148
REMARK   66  A    between atoms: _147  and  _150
REMARK   67  A    between atoms: _150  and  _151
REMARK   68  A    between atoms: _154  and  _156
REMARK   69  A    between atoms: _156  and  _157
REMARK   70  A    between atoms: _156  and  _159
REMARK   71  A    between atoms: _159  and  _160
REMARK   72  A    between atoms: _162  and  _164
REMARK   73  A    between atoms: _164  and  _165
REMARK   74  A    between atoms: _164  and  _167
REMARK   75  A    between atoms: _167  and  _168
REMARK   76  A    between atoms: _168  and  _169
REMARK   77  A    between atoms: _172  and  _174
REMARK   78  A    between atoms: _174  and  _175
REMARK   79  A    between atoms: _174  and  _177
REMARK   80  A    between atoms: _177  and  _178
REMARK   81  A    between atoms: _181  and  _183
REMARK   82  A    between atoms: _183  and  _184
REMARK   83  A    between atoms: _183  and  _186
REMARK   84  A    between atoms: _186  and  _187
REMARK   85  A    between atoms: _190  and  _192
REMARK   86  A    between atoms: _192  and  _193
REMARK   87  A    between atoms: _192  and  _195
REMARK   88  A    between atoms: _195  and  _196
REMARK   89  A    between atoms: _199  and  _201
REMARK   90  A    between atoms: _201  and  _202
REMARK   91  A    between atoms: _201  and  _204
REMARK   92  A    between atoms: _204  and  _205
REMARK   93  A    between atoms: _208  and  _210
REMARK   94  A    between atoms: _210  and  _211
REMARK   95  A    between atoms: _213  and  _215
REMARK   96  A    between atoms: _215  and  _216
REMARK   97  A    between atoms: _215  and  _218
REMARK   98  A    between atoms: _218  and  _219
REMARK   99  A    between atoms: _224  and  _226
REMARK  100  A    between atoms: _226  and  _227
REMARK  101  A    between atoms: _226  and  _229
REMARK  102  A    between atoms: _232  and  _234
REMARK  103  A    between atoms: _234  and  _235
REMARK  104  A    between atoms: _234  and  _237
REMARK  105  A    between atoms: _240  and  _242
REMARK  106  A    between atoms: _242  and  _243
REMARK  107  A    between atoms: _242  and  _245
REMARK  108  A    between atoms: _245  and  _246
REMARK  109  A    between atoms: _251  and  _253
REMARK  110  A    between atoms: _253  and  _254
REMARK  111  A    between atoms: _253  and  _256
REMARK  112  A    between atoms: _256  and  _257
REMARK  113  A    between atoms: _260  and  _262
REMARK  114  A    between atoms: _262  and  _263
REMARK  115  A    between atoms: _262  and  _265
REMARK  116  A    between atoms: _268  and  _270
REMARK  117  A    between atoms: _270  and  _271
REMARK  118  A    between atoms: _270  and  _273
REMARK  119  A    between atoms: _273  and  _274
REMARK  120  A    between atoms: _277  and  _279
REMARK  121  A    between atoms: _279  and  _280
REMARK  122  A    between atoms: _279  and  _282
REMARK  123  A    between atoms: _285  and  _287
REMARK  124  A    between atoms: _287  and  _288
REMARK  125  A    between atoms: _287  and  _290
REMARK  126  A    between atoms: _290  and  _291
REMARK  127  A    between atoms: _291  and  _292
REMARK  128  A    between atoms: _295  and  _297
REMARK  129  A    between atoms: _297  and  _298
REMARK  130  A    between atoms: _297  and  _300
REMARK  131  A    between atoms: _300  and  _301
REMARK  132  A    between atoms: _307  and  _309
REMARK  133  A    between atoms: _309  and  _310
REMARK  134  A    between atoms: _309  and  _312
REMARK  135  A    between atoms: _314  and  _316
REMARK  136  A    between atoms: _316  and  _317
REMARK  137  A    between atoms: _316  and  _319
REMARK  138  A    between atoms: _319  and  _320
REMARK  139  A    between atoms: _320  and  _321
REMARK  140  A    between atoms: _321  and  _322
REMARK  141  A    between atoms: _322  and  _323
REMARK  142  A    between atoms: _327  and  _329
REMARK  143  A    between atoms: _329  and  _330
REMARK  144  A    between atoms: _329  and  _332
REMARK  145  A    between atoms: _332  and  _333
REMARK  146  A    between atoms: _339  and  _341
REMARK  147  A    between atoms: _341  and  _342
REMARK  148  A    between atoms: _344  and  _346
REMARK  149  A    between atoms: _346  and  _347
REMARK  150  A    between atoms: _346  and  _349
REMARK  151  A    between atoms: _349  and  _350
REMARK  152  A    between atoms: _355  and  _357
REMARK  153  A    between atoms: _357  and  _358
REMARK  154  A    between atoms: _360  and  _362
REMARK  155  A    between atoms: _362  and  _363
REMARK  156  A    between atoms: _362  and  _365
REMARK  157  A    between atoms: _365  and  _366
REMARK  158  A    between atoms: _366  and  _367
REMARK  159  A    between atoms: _369  and  _371
REMARK  160  A    between atoms: _371  and  _372
REMARK  161  A    between atoms: _371  and  _374
REMARK  162  A    between atoms: _374  and  _375
REMARK  163  A    between atoms: _381  and  _383
REMARK  164  A    between atoms: _383  and  _384
REMARK  165  A    between atoms: _383  and  _386
REMARK  166  A    between atoms: _386  and  _387
REMARK  167  A    between atoms: _390  and  _392
REMARK  168  A    between atoms: _392  and  _393
REMARK  169  A    between atoms: _392  and  _395
REMARK  170  A    between atoms: _397  and  _399
REMARK  171  A    between atoms: _399  and  _400
REMARK  172  A    between atoms: _399  and  _402
REMARK  173  A    between atoms: _402  and  _403
REMARK  174  A    between atoms: _406  and  _408
REMARK  175  A    between atoms: _408  and  _409
REMARK  176  A    between atoms: _408  and  _411
REMARK  177  A    between atoms: _411  and  _412
REMARK  178  A    between atoms: _417  and  _419
REMARK  179  A    between atoms: _419  and  _420
REMARK  180  A    between atoms: _419  and  _422
REMARK  181  A    between atoms: _422  and  _423
REMARK  182  A    between atoms: _423  and  _424
REMARK  183  A    between atoms: _424  and  _425
REMARK  184  A    between atoms: _434  and  _436
REMARK  185  A    between atoms: _436  and  _437
REMARK  186  A    between atoms: _436  and  _439
REMARK  187  A    between atoms: _439  and  _440
REMARK  188  A    between atoms: _443  and  _445
REMARK  189  A    between atoms: _445  and  _446
REMARK  190  A    between atoms: _445  and  _448
REMARK  191  A    between atoms: _448  and  _449
REMARK  192  A    between atoms: _452  and  _454
REMARK  193  A    between atoms: _454  and  _455
REMARK  194  A    between atoms: _454  and  _457
REMARK  195  A    between atoms: _457  and  _458
REMARK  196  A    between atoms: _458  and  _459
REMARK  197  A    between atoms: _459  and  _460
REMARK  198  A    between atoms: _469  and  _471
REMARK  199  A    between atoms: _471  and  _472
REMARK  200  A    between atoms: _471  and  _474
REMARK  201  A    between atoms: _474  and  _475
REMARK  202  A    between atoms: _480  and  _482
REMARK  203  A    between atoms: _482  and  _483
REMARK  204  A    between atoms: _482  and  _485
REMARK  205  A    between atoms: _485  and  _486
REMARK  206  A    between atoms: _489  and  _491
REMARK  207  A    between atoms: _491  and  _492
REMARK  208  A    between atoms: _491  and  _494
REMARK  209  A    between atoms: _494  and  _495
REMARK  210  A    between atoms: _498  and  _500
REMARK  211  A    between atoms: _500  and  _501
REMARK  212  A    between atoms: _500  and  _503
REMARK  213  A    between atoms: _503  and  _504
REMARK  214  A    between atoms: _507  and  _509
REMARK  215  A    between atoms: _509  and  _510
REMARK  216  A    between atoms: _509  and  _512
REMARK  217  A    between atoms: _512  and  _513
REMARK  218  A    between atoms: _515  and  _517
REMARK  219  A    between atoms: _517  and  _518
REMARK  220  A    between atoms: _517  and  _520
REMARK  221  A    between atoms: _520  and  _521
REMARK  222  A    between atoms: _521  and  _522
REMARK  223  A    between atoms: _522  and  _523
REMARK  224  A    between atoms: _523  and  _524
REMARK  225  A    between atoms: _528  and  _530
REMARK  226  A    between atoms: _530  and  _531
REMARK  227  A    between atoms: _530  and  _533
REMARK  228  A    between atoms: _533  and  _534
REMARK  229  A    between atoms: _537  and  _539
REMARK  230  A    between atoms: _539  and  _540
REMARK  231  A    between atoms: _539  and  _542
REMARK  232  A    between atoms: _544  and  _546
REMARK  233  A    between atoms: _546  and  _547
REMARK  234  A    between atoms: _546  and  _549
REMARK  235  A    between atoms: _549  and  _550
REMARK  236  A    between atoms: _553  and  _555
REMARK  237  A    between atoms: _555  and  _556
REMARK  238  A    between atoms: _555  and  _558
REMARK  239  A    between atoms: _558  and  _559
REMARK  240  A    between atoms: _565  and  _567
REMARK  241  A    between atoms: _567  and  _568
REMARK  242  A    between atoms: _570  and  _572
REMARK  243  A    between atoms: _572  and  _573
REMARK  244  A    between atoms: _572  and  _575
REMARK  245  A    between atoms: _575  and  _576
REMARK  246  A    between atoms: _579  and  _581
REMARK  247  A    between atoms: _581  and  _582
REMARK  248  A    between atoms: _585  and  _587
REMARK  249  A    between atoms: _587  and  _588
REMARK  250  A    between atoms: _587  and  _590
REMARK  251  A    between atoms: _590  and  _591
REMARK  252  A    between atoms: _591  and  _592
REMARK  253  A    between atoms: _592  and  _593
REMARK                            x       y       z     vdW  Elec       q    Type
REMARK                         _______ _______ _______ _____ _____    ______ ____
ROOT
ATOM      1  CA  ILE A   1     -36.117   1.382  -4.602  0.00  0.00    +0.145 C 
ENDROOT
BRANCH   1   2
ATOM      2  C   ILE A   1     -36.323   2.871  -4.947  0.00  0.00    +0.238 C 
ATOM      3  O   ILE A   1     -36.469   3.691  -4.044  0.00  0.00    -0.274 OA
ATOM      4  N   GLY A   2     -36.333   3.220  -6.233  0.00  0.00    -0.297 N 
ATOM      5  H   GLY A   2     -36.224   2.485  -6.960  0.00  0.00    +0.150 HD
BRANCH   4   6
ATOM      6  CA  GLY A   2     -36.495   4.621  -6.647  0.00  0.00    +0.163 C 
BRANCH   6   7
ATOM      7  C   GLY A   2     -35.191   5.426  -6.647  0.00  0.00    +0.229 C 
ATOM      8  O   GLY A   2     -34.100   4.866  -6.489  0.00  0.00    -0.286 OA
ENDBRANCH   6   7
ENDBRANCH   4   6
ENDBRANCH   1   2
BRANCH   1   9
ATOM      9  N   ILE A   1     -37.019   0.498  -5.342  0.00  0.00    -0.238 NA
ATOM     10  H   ILE A   1     -36.621  -0.289  -5.894  0.00  0.00    +0.142 HD
ENDBRANCH   1   9
BRANCH   1  11
ATOM     11  CB  ILE A   1     -34.636   0.945  -4.757  0.00  0.00    +0.025 C 
ATOM     12  CG2 ILE A   1     -33.693   2.005  -4.193  0.00  0.00    +0.002 C 
BRANCH  11  13
ATOM     13  CG1 ILE A   1     -34.420  -0.409  -4.062  0.00  0.00    +0.002 C 
ATOM     14  CD1 ILE A   1     -33.225  -1.227  -4.600  0.00  0.00    +0.000 C 
ENDBRANCH  11  13
ENDBRANCH   1  11
TORSDOF 6
REMARK  Name = ../refined-set-2016/4asd/4asd_pocket.pdb
REMARK  253 active torsions:
REMARK  status: ('A' for Active; 'I' for Inactive)
REMARK    1  A    between atoms: _1  and  _3
REMARK    2  A    between atoms: _3  and  _4
REMARK    3  A    between atoms: _3  and  _6
REMARK    4  A    between atoms: _6  and  _7
REMARK    5  A    between atoms: _10  and  _12
REMARK    6  A    between atoms: _12  and  _13
REMARK    7  A    between atoms: _12  and  _15
REMARK    8  A    between atoms: _15  and  _16
REMARK    9  A    between atoms: _19  and  _21
REMARK   10  A    between atoms: _21  and  _22
REMARK   11  A    between atoms: _21  and  _24
REMARK   12  A    between atoms: _24  and  _25
REMARK   13  A    between atoms: _25  and  _26
REMARK   14  A    between atoms: _26  and  _27
REMARK   15  A    between atoms: _27  and  _28
REMARK   16  A    between atoms: _33  and  _34
REMARK   17  A    between atoms: _39  and  _41
REMARK   18  A    between atoms: _41  and  _42
REMARK   19  A    between atoms: _41  and  _44
REMARK   20  A    between atoms: _44  and  _45
REMARK   21  A    between atoms: _48  and  _50
REMARK   22  A    between atoms: _50  and  _51
REMARK   23  A    between atoms: _53  and  _55
REMARK   24  A    between atoms: _55  and  _56
REMARK   25  A    between atoms: _55  and  _58
REMARK   26  A    between atoms: _58  and  _59
REMARK   27  A    between atoms: _59  and  _60
REMARK   28  A    between atoms: _65  and  _67
REMARK   29  A    between atoms: _67  and  _68
REMARK   30  A    between atoms: _67  and  _70
REMARK   31  A    between atoms: _73  and  _75
REMARK   32  A    between atoms: _75  and  _76
REMARK   33  A    between atoms: _75  and  _78
REMARK   34  A    between atoms: _78  and  _79
REMARK   35  A    between atoms: _82  and  _84
REMARK   36  A    between atoms: _84  and  _85
REMARK   37  A    between atoms: _84  and  _87
REMARK   38  A    between atoms: _87  and  _88
REMARK   39  A    between atoms: _88  and  _89
REMARK   40  A    between atoms: _92  and  _94
REMARK   41  A    between atoms: _94  and  _95
REMARK   42  A    between atoms: _94  and  _97
REMARK   43  A    between atoms: _97  and  _98
REMARK   44  A    between atoms: _101  and  _103
REMARK   45  A    between atoms: _103  and  _104
REMARK   46  A    between atoms: _103  and  _106
REMARK   47  A    between atoms: _109  and  _111
REMARK   48  A    between atoms: _111  and  _112
REMARK   49  A    between atoms: _115  and  _117
REMARK   50  A    between atoms: _117  and  _118
REMARK   51  A    between atoms: _117  and  _120
REMARK   52  A    between atoms: _123  and  _125
REMARK   53  A    between atoms: _125  and  _126
REMARK   54  A    between atoms: _125  and  _128
REMARK   55  A    between atoms: _128  and  _129
REMARK   56  A    between atoms: _129  and  _130
REMARK   57  A    between atoms: _130  and  _131
REMARK   58  A    between atoms: _131  and  _132
REMARK   59  A    between atoms: _136  and  _138
REMARK   60  A    between atoms: _138  and  _139
REMARK   61  A    between atoms: _138  and  _141
REMARK   62  A    between atoms: _141  and  _142
REMARK   63  A    between atoms: _142  and  _143
REMARK   64  A    between atoms: _145  and  _147
REMARK   65  A    between atoms: _147  and  _148
REMARK   66  A    between atoms: _147  and  _150
REMARK   67  A    between atoms: _150  and  _151
REMARK   68  A    between atoms: _154  and  _156
REMARK   69  A    between atoms: _156  and  _157
REMARK   70  A    between atoms: _156  and  _159
REMARK   71  A    between atoms: _159  and  _160
REMARK   72  A    between atoms: _162  and  _164
REMARK   73  A    between atoms: _164  and  _165
REMARK   74  A    between atoms: _164  and  _167
REMARK   75  A    between atoms: _167  and  _168
REMARK   76  A    between atoms: _168  and  _169
REMARK   77  A    between atoms: _172  and  _174
REMARK   78  A    between atoms: _174  and  _175
REMARK   79  A    between atoms: _174  and  _177
REMARK   80  A    between atoms: _177  and  _178
REMARK   81  A    between atoms: _181  and  _183
REMARK   82  A    between atoms: _183  and  _184
REMARK   83  A    between atoms: _183  and  _186
REMARK   84  A    between atoms: _186  and  _187
REMARK   85  A    between atoms: _190  and  _192
REMARK   86  A    between atoms: _192  and  _193
REMARK   87  A    between atoms: _192  and  _195
REMARK   88  A    between atoms: _195  and  _196
REMARK   89  A    between atoms: _199  and  _201
REMARK   90  A    between atoms: _201  and  _202
REMARK   91  A    between atoms: _201  and  _204
REMARK   92  A    between atoms: _204  and  _205
REMARK   93  A    between atoms: _208  and  _210
REMARK   94  A    between atoms: _210  and  _211
REMARK   95  A    between atoms: _213  and  _215
REMARK   96  A    between atoms: _215  and  _216
REMARK   97  A    between atoms: _215  and  _218
REMARK   98  A    between atoms: _218  and  _219
REMARK   99  A    between atoms: _224  and  _226
REMARK  100  A    between atoms: _226  and  _227
REMARK  101  A    between atoms: _226  and  _229
REMARK  102  A    between atoms: _232  and  _234
REMARK  103  A    between atoms: _234  and  _235
REMARK  104  A    between atoms: _234  and  _237
REMARK  105  A    between atoms: _240  and  _242
REMARK  106  A    between atoms: _242  and  _243
REMARK  107  A    between atoms: _242  and  _245
REMARK  108  A    between atoms: _245  and  _246
REMARK  109  A    between atoms: _251  and  _253
REMARK  110  A    between atoms: _253  and  _254
REMARK  111  A    between atoms: _253  and  _256
REMARK  112  A    between atoms: _256  and  _257
REMARK  113  A    between atoms: _260  and  _262
REMARK  114  A    between atoms: _262  and  _263
REMARK  115  A    between atoms: _262  and  _265
REMARK  116  A    between atoms: _268  and  _270
REMARK  117  A    between atoms: _270  and  _271
REMARK  118  A    between atoms: _270  and  _273
REMARK  119  A    between atoms: _273  and  _274
REMARK  120  A    between atoms: _277  and  _279
REMARK  121  A    between atoms: _279  and  _280
REMARK  122  A    between atoms: _279  and  _282
REMARK  123  A    between atoms: _285  and  _287
REMARK  124  A    between atoms: _287  and  _288
REMARK  125  A    between atoms: _287  and  _290
REMARK  126  A    between atoms: _290  and  _291
REMARK  127  A    between atoms: _291  and  _292
REMARK  128  A    between atoms: _295  and  _297
REMARK  129  A    between atoms: _297  and  _298
REMARK  130  A    between atoms: _297  and  _300
REMARK  131  A    between atoms: _300  and  _301
REMARK  132  A    between atoms: _307  and  _309
REMARK  133  A    between atoms: _309  and  _310
REMARK  134  A    between atoms: _309  and  _312
REMARK  135  A    between atoms: _314  and  _316
REMARK  136  A    between atoms: _316  and  _317
REMARK  137  A    between atoms: _316  and  _319
REMARK  138  A    between atoms: _319  and  _320
REMARK  139  A    between atoms: _320  and  _321
REMARK  140  A    between atoms: _321  and  _322
REMARK  141  A    between atoms: _322  and  _323
REMARK  142  A    between atoms: _327  and  _329
REMARK  143  A    between atoms: _329  and  _330
REMARK  144  A    between atoms: _329  and  _332
REMARK  145  A    between atoms: _332  and  _333
REMARK  146  A    between atoms: _339  and  _341
REMARK  147  A    between atoms: _341  and  _342
REMARK  148  A    between atoms: _344  and  _346
REMARK  149  A    between atoms: _346  and  _347
REMARK  150  A    between atoms: _346  and  _349
REMARK  151  A    between atoms: _349  and  _350
REMARK  152  A    between atoms: _355  and  _357
REMARK  153  A    between atoms: _357  and  _358
REMARK  154  A    between atoms: _360  and  _362
REMARK  155  A    between atoms: _362  and  _363
REMARK  156  A    between atoms: _362  and  _365
REMARK  157  A    between atoms: _365  and  _366
REMARK  158  A    between atoms: _366  and  _367
REMARK  159  A    between atoms: _369  and  _371
REMARK  160  A    between atoms: _371  and  _372
REMARK  161  A    between atoms: _371  and  _374
REMARK  162  A    between atoms: _374  and  _375
REMARK  163  A    between atoms: _381  and  _383
REMARK  164  A    between atoms: _383  and  _384
REMARK  165  A    between atoms: _383  and  _386
REMARK  166  A    between atoms: _386  and  _387
REMARK  167  A    between atoms: _390  and  _392
REMARK  168  A    between atoms: _392  and  _393
REMARK  169  A    between atoms: _392  and  _395
REMARK  170  A    between atoms: _397  and  _399
REMARK  171  A    between atoms: _399  and  _400
REMARK  172  A    between atoms: _399  and  _402
REMARK  173  A    between atoms: _402  and  _403
REMARK  174  A    between atoms: _406  and  _408
REMARK  175  A    between atoms: _408  and  _409
REMARK  176  A    between atoms: _408  and  _411
REMARK  177  A    between atoms: _411  and  _412
REMARK  178  A    between atoms: _417  and  _419
REMARK  179  A    between atoms: _419  and  _420
REMARK  180  A    between atoms: _419  and  _422
REMARK  181  A    between atoms: _422  and  _423
REMARK  182  A    between atoms: _423  and  _424
REMARK  183  A    between atoms: _424  and  _425
REMARK  184  A    between atoms: _434  and  _436
REMARK  185  A    between atoms: _436  and  _437
REMARK  186  A    between atoms: _436  and  _439
REMARK  187  A    between atoms: _439  and  _440
REMARK  188  A    between atoms: _443  and  _445
REMARK  189  A    between atoms: _445  and  _446
REMARK  190  A    between atoms: _445  and  _448
REMARK  191  A    between atoms: _448  and  _449
REMARK  192  A    between atoms: _452  and  _454
REMARK  193  A    between atoms: _454  and  _455
REMARK  194  A    between atoms: _454  and  _457
REMARK  195  A    between atoms: _457  and  _458
REMARK  196  A    between atoms: _458  and  _459
REMARK  197  A    between atoms: _459  and  _460
REMARK  198  A    between atoms: _469  and  _471
REMARK  199  A    between atoms: _471  and  _472
REMARK  200  A    between atoms: _471  and  _474
REMARK  201  A    between atoms: _474  and  _475
REMARK  202  A    between atoms: _480  and  _482
REMARK  203  A    between atoms: _482  and  _483
REMARK  204  A    between atoms: _482  and  _485
REMARK  205  A    between atoms: _485  and  _486
REMARK  206  A    between atoms: _489  and  _491
REMARK  207  A    between atoms: _491  and  _492
REMARK  208  A    between atoms: _491  and  _494
REMARK  209  A    between atoms: _494  and  _495
REMARK  210  A    between atoms: _498  and  _500
REMARK  211  A    between atoms: _500  and  _501
REMARK  212  A    between atoms: _500  and  _503
REMARK  213  A    between atoms: _503  and  _504
REMARK  214  A    between atoms: _507  and  _509
REMARK  215  A    between atoms: _509  and  _510
REMARK  216  A    between atoms: _509  and  _512
REMARK  217  A    between atoms: _512  and  _513
REMARK  218  A    between atoms: _515  and  _517
REMARK  219  A    between atoms: _517  and  _518
REMARK  220  A    between atoms: _517  and  _520
REMARK  221  A    between atoms: _520  and  _521
REMARK  222  A    between atoms: _521  and  _522
REMARK  223  A    between atoms: _522  and  _523
REMARK  224  A    between atoms: _523  and  _524
REMARK  225  A    between atoms: _528  and  _530
REMARK  226  A    between atoms: _530  and  _531
REMARK  227  A    between atoms: _530  and  _533
REMARK  228  A    between atoms: _533  and  _534
REMARK  229  A    between atoms: _537  and  _539
REMARK  230  A    between atoms: _539  and  _540
REMARK  231  A    between atoms: _539  and  _542
REMARK  232  A    between atoms: _544  and  _546
REMARK  233  A    between atoms: _546  and  _547
REMARK  234  A    between atoms: _546  and  _549
REMARK  235  A    between atoms: _549  and  _550
REMARK  236  A    between atoms: _553  and  _555
REMARK  237  A    between atoms: _555  and  _556
REMARK  238  A    between atoms: _555  and  _558
REMARK  239  A    between atoms: _558  and  _559
REMARK  240  A    between atoms: _565  and  _567
REMARK  241  A    between atoms: _567  and  _568
REMARK  242  A    between atoms: _570  and  _572
REMARK  243  A    between atoms: _572  and  _573
REMARK  244  A    between atoms: _572  and  _575
REMARK  245  A    between atoms: _575  and  _576
REMARK  246  A    between atoms: _579  and  _581
REMARK  247  A    between atoms: _581  and  _582
REMARK  248  A    between atoms: _585  and  _587
REMARK  249  A    between atoms: _587  and  _588
REMARK  250  A    between atoms: _587  and  _590
REMARK  251  A    between atoms: _590  and  _591
REMARK  252  A    between atoms: _591  and  _592
REMARK  253  A    between atoms: _592  and  _593
REMARK                            x       y       z     vdW  Elec       q    Type
REMARK                         _______ _______ _______ _____ _____    ______ ____
ROOT
ATOM      1  CA  VAL A   3     -27.010   4.356  -9.096  0.00  0.00    +0.149 C 
ENDROOT
BRANCH   1   2
ATOM      2  C   VAL A   3     -28.477   4.376  -9.611  0.00  0.00    +0.241 C 
ATOM      3  O   VAL A   3     -29.255   3.489  -9.298  0.00  0.00    -0.273 OA
ATOM      4  N   ASN A   4     -28.846   5.416 -10.347  0.00  0.00    -0.297 N 
ATOM      5  H   ASN A   4     -28.137   6.122 -10.630  0.00  0.00    +0.150 HD
BRANCH   4   6
ATOM      6  CA  ASN A   4     -30.233   5.582 -10.765  0.00  0.00    +0.158 C 
BRANCH   6   7
ATOM      7  C   ASN A   4     -30.581   4.821 -12.026  0.00  0.00    +0.241 C 
ATOM      8  N   LEU A   5     -31.687   4.099 -11.935  0.00  0.00    -0.298 N 
ATOM      9  H   LEU A   5     -32.135   4.001 -11.001  0.00  0.00    +0.150 HD
ATOM     10  O   ASN A   4     -29.880   4.907 -13.034  0.00  0.00    -0.273 OA
BRANCH   8  11
ATOM     11  CA  LEU A   5     -32.313   3.433 -13.075  0.00  0.00    +0.137 C 
BRANCH  11  12
ATOM     12  C   LEU A   5     -32.921   4.474 -14.013  0.00  0.00    +0.227 C 
ATOM     13  O   LEU A   5     -33.657   5.354 -13.573  0.00  0.00    -0.286 OA
ENDBRANCH  11  12
BRANCH  11  14
ATOM     14  CB  LEU A   5     -33.405   2.488 -12.571  0.00  0.00    +0.028 C 
BRANCH  14  15
ATOM     15  CG  LEU A   5     -34.107   1.700 -13.675  0.00  0.00    +0.002 C 
ATOM     16  CD2 LEU A   5     -35.379   1.086 -13.129  0.00  0.00    +0.000 C 
ATOM     17  CD1 LEU A   5     -33.145   0.638 -14.229  0.00  0.00    +0.000 C 
ENDBRANCH  14  15
ENDBRANCH  11  14
ENDBRANCH   8  11
ENDBRANCH   6   7
BRANCH   6  18
ATOM     18  CB  ASN A   4     -30.571   7.048 -10.958  0.00  0.00    +0.114 C 
BRANCH  18  19
ATOM     19  CG  ASN A   4     -30.527   7.827  -9.646  0.00  0.00    +0.222 C 
ATOM     20  OD1 ASN A   4     -30.882   7.307  -8.565  0.00  0.00    -0.275 OA
ATOM     21  ND2 ASN A   4     -30.116   9.077  -9.738  0.00  0.00    -0.329 N 
ATOM     22 HD21 ASN A   4     -30.077   9.675  -8.888  0.00  0.00    +0.145 HD
ATOM     23 HD22 ASN A   4     -29.831   9.464 -10.660  0.00  0.00    +0.145 HD
ENDBRANCH  18  19
ENDBRANCH   6  18
ENDBRANCH   4   6
ENDBRANCH   1   2
BRANCH   1  26
ATOM     24  C   VAL A   2     -27.640   5.246  -6.942  0.00  0.00    +0.241 C 
ATOM     25  O   VAL A   2     -28.151   6.232  -7.492  0.00  0.00    -0.273 OA
ATOM     26  N   VAL A   3     -27.045   4.277  -7.633  0.00  0.00    -0.297 N 
ATOM     27  H   VAL A   3     -26.609   3.472  -7.140  0.00  0.00    +0.150 HD
BRANCH  24  28
ATOM     28  CA  VAL A   2     -27.647   5.127  -5.428  0.00  0.00    +0.148 C 
BRANCH  28  31
ATOM     29  C   ASN A   1     -26.486   6.740  -3.994  0.00  0.00    +0.239 C 
ATOM     30  O   ASN A   1     -25.815   5.862  -3.420  0.00  0.00    -0.274 OA
ATOM     31  N   VAL A   2     -27.429   6.472  -4.898  0.00  0.00    -0.297 N 
ATOM     32  H   VAL A   2     -28.032   7.248  -5.239  0.00  0.00    +0.150 HD
BRANCH  29  33
ATOM     33  CA  ASN A   1     -26.259   8.225  -3.698  0.00  0.00    +0.154 C 
BRANCH  33  34
ATOM     34  N   ASN A   1     -27.366   9.094  -4.050  0.00  0.00    -0.238 NA
ATOM     35  H   ASN A   1     -28.204   9.127  -3.435  0.00  0.00    +0.142 HD
ENDBRANCH  33  34
BRANCH  33  36
ATOM     36  CB  ASN A   1     -25.874   8.460  -2.238  0.00  0.00    +0.111 C 
BRANCH  36  37
ATOM     37  CG  ASN A   1     -25.477   9.901  -1.980  0.00  0.00    +0.221 C 
ATOM     38  OD1 ASN A   1     -26.045  10.561  -1.128  0.00  0.00    -0.275 OA
ATOM     39  ND2 ASN A   1     -24.516  10.396  -2.748  0.00  0.00    -0.329 N 
ATOM     40 HD21 ASN A   1     -24.219  11.386  -2.636  0.00  0.00    +0.145 HD
ATOM     41 HD22 ASN A   1     -24.060   9.794  -3.463  0.00  0.00    +0.145 HD
ENDBRANCH  36  37
ENDBRANCH  33  36
ENDBRANCH  29  33
ENDBRANCH  28  31
BRANCH  28  42
ATOM     42  CB  VAL A   2     -28.956   4.460  -4.886  0.00  0.00    +0.027 C 
ATOM     43  CG2 VAL A   2     -29.019   4.544  -3.321  0.00  0.00    +0.002 C 
ATOM     44  CG1 VAL A   2     -30.183   5.087  -5.464  0.00  0.00    +0.002 C 
ENDBRANCH  28  42
ENDBRANCH  24  28
ENDBRANCH   1  26
BRANCH   1  45
ATOM     45  CB  VAL A   3     -26.144   3.227  -9.720  0.00  0.00    +0.027 C 
ATOM     46  CG2 VAL A   3     -26.798   1.870  -9.557  0.00  0.00    +0.002 C 
ATOM     47  CG1 VAL A   3     -25.841   3.517 -11.181  0.00  0.00    +0.002 C 
ENDBRANCH   1  45
TORSDOF 18
REMARK  Name = ../refined-set-2016/4asd/4asd_pocket.pdb
REMARK  253 active torsions:
REMARK  status: ('A' for Active; 'I' for Inactive)
REMARK    1  A    between atoms: _1  and  _3
REMARK    2  A    between atoms: _3  and  _4
REMARK    3  A    between atoms: _3  and  _6
REMARK    4  A    between atoms: _6  and  _7
REMARK    5  A    between atoms: _10  and  _12
REMARK    6  A    between atoms: _12  and  _13
REMARK    7  A    between atoms: _12  and  _15
REMARK    8  A    between atoms: _15  and  _16
REMARK    9  A    between atoms: _19  and  _21
REMARK   10  A    between atoms: _21  and  _22
REMARK   11  A    between atoms: _21  and  _24
REMARK   12  A    between atoms: _24  and  _25
REMARK   13  A    between atoms: _25  and  _26
REMARK   14  A    between atoms: _26  and  _27
REMARK   15  A    between atoms: _27  and  _28
REMARK   16  A    between atoms: _33  and  _34
REMARK   17  A    between atoms: _39  and  _41
REMARK   18  A    between atoms: _41  and  _42
REMARK   19  A    between atoms: _41  and  _44
REMARK   20  A    between atoms: _44  and  _45
REMARK   21  A    between atoms: _48  and  _50
REMARK   22  A    between atoms: _50  and  _51
REMARK   23  A    between atoms: _53  and  _55
REMARK   24  A    between atoms: _55  and  _56
REMARK   25  A    between atoms: _55  and  _58
REMARK   26  A    between atoms: _58  and  _59
REMARK   27  A    between atoms: _59  and  _60
REMARK   28  A    between atoms: _65  and  _67
REMARK   29  A    between atoms: _67  and  _68
REMARK   30  A    between atoms: _67  and  _70
REMARK   31  A    between atoms: _73  and  _75
REMARK   32  A    between atoms: _75  and  _76
REMARK   33  A    between atoms: _75  and  _78
REMARK   34  A    between atoms: _78  and  _79
REMARK   35  A    between atoms: _82  and  _84
REMARK   36  A    between atoms: _84  and  _85
REMARK   37  A    between atoms: _84  and  _87
REMARK   38  A    between atoms: _87  and  _88
REMARK   39  A    between atoms: _88  and  _89
REMARK   40  A    between atoms: _92  and  _94
REMARK   41  A    between atoms: _94  and  _95
REMARK   42  A    between atoms: _94  and  _97
REMARK   43  A    between atoms: _97  and  _98
REMARK   44  A    between atoms: _101  and  _103
REMARK   45  A    between atoms: _103  and  _104
REMARK   46  A    between atoms: _103  and  _106
REMARK   47  A    between atoms: _109  and  _111
REMARK   48  A    between atoms: _111  and  _112
REMARK   49  A    between atoms: _115  and  _117
REMARK   50  A    between atoms: _117  and  _118
REMARK   51  A    between atoms: _117  and  _120
REMARK   52  A    between atoms: _123  and  _125
REMARK   53  A    between atoms: _125  and  _126
REMARK   54  A    between atoms: _125  and  _128
REMARK   55  A    between atoms: _128  and  _129
REMARK   56  A    between atoms: _129  and  _130
REMARK   57  A    between atoms: _130  and  _131
REMARK   58  A    between atoms: _131  and  _132
REMARK   59  A    between atoms: _136  and  _138
REMARK   60  A    between atoms: _138  and  _139
REMARK   61  A    between atoms: _138  and  _141
REMARK   62  A    between atoms: _141  and  _142
REMARK   63  A    between atoms: _142  and  _143
REMARK   64  A    between atoms: _145  and  _147
REMARK   65  A    between atoms: _147  and  _148
REMARK   66  A    between atoms: _147  and  _150
REMARK   67  A    between atoms: _150  and  _151
REMARK   68  A    between atoms: _154  and  _156
REMARK   69  A    between atoms: _156  and  _157
REMARK   70  A    between atoms: _156  and  _159
REMARK   71  A    between atoms: _159  and  _160
REMARK   72  A    between atoms: _162  and  _164
REMARK   73  A    between atoms: _164  and  _165
REMARK   74  A    between atoms: _164  and  _167
REMARK   75  A    between atoms: _167  and  _168
REMARK   76  A    between atoms: _168  and  _169
REMARK   77  A    between atoms: _172  and  _174
REMARK   78  A    between atoms: _174  and  _175
REMARK   79  A    between atoms: _174  and  _177
REMARK   80  A    between atoms: _177  and  _178
REMARK   81  A    between atoms: _181  and  _183
REMARK   82  A    between atoms: _183  and  _184
REMARK   83  A    between atoms: _183  and  _186
REMARK   84  A    between atoms: _186  and  _187
REMARK   85  A    between atoms: _190  and  _192
REMARK   86  A    between atoms: _192  and  _193
REMARK   87  A    between atoms: _192  and  _195
REMARK   88  A    between atoms: _195  and  _196
REMARK   89  A    between atoms: _199  and  _201
REMARK   90  A    between atoms: _201  and  _202
REMARK   91  A    between atoms: _201  and  _204
REMARK   92  A    between atoms: _204  and  _205
REMARK   93  A    between atoms: _208  and  _210
REMARK   94  A    between atoms: _210  and  _211
REMARK   95  A    between atoms: _213  and  _215
REMARK   96  A    between atoms: _215  and  _216
REMARK   97  A    between atoms: _215  and  _218
REMARK   98  A    between atoms: _218  and  _219
REMARK   99  A    between atoms: _224  and  _226
REMARK  100  A    between atoms: _226  and  _227
REMARK  101  A    between atoms: _226  and  _229
REMARK  102  A    between atoms: _232  and  _234
REMARK  103  A    between atoms: _234  and  _235
REMARK  104  A    between atoms: _234  and  _237
REMARK  105  A    between atoms: _240  and  _242
REMARK  106  A    between atoms: _242  and  _243
REMARK  107  A    between atoms: _242  and  _245
REMARK  108  A    between atoms: _245  and  _246
REMARK  109  A    between atoms: _251  and  _253
REMARK  110  A    between atoms: _253  and  _254
REMARK  111  A    between atoms: _253  and  _256
REMARK  112  A    between atoms: _256  and  _257
REMARK  113  A    between atoms: _260  and  _262
REMARK  114  A    between atoms: _262  and  _263
REMARK  115  A    between atoms: _262  and  _265
REMARK  116  A    between atoms: _268  and  _270
REMARK  117  A    between atoms: _270  and  _271
REMARK  118  A    between atoms: _270  and  _273
REMARK  119  A    between atoms: _273  and  _274
REMARK  120  A    between atoms: _277  and  _279
REMARK  121  A    between atoms: _279  and  _280
REMARK  122  A    between atoms: _279  and  _282
REMARK  123  A    between atoms: _285  and  _287
REMARK  124  A    between atoms: _287  and  _288
REMARK  125  A    between atoms: _287  and  _290
REMARK  126  A    between atoms: _290  and  _291
REMARK  127  A    between atoms: _291  and  _292
REMARK  128  A    between atoms: _295  and  _297
REMARK  129  A    between atoms: _297  and  _298
REMARK  130  A    between atoms: _297  and  _300
REMARK  131  A    between atoms: _300  and  _301
REMARK  132  A    between atoms: _307  and  _309
REMARK  133  A    between atoms: _309  and  _310
REMARK  134  A    between atoms: _309  and  _312
REMARK  135  A    between atoms: _314  and  _316
REMARK  136  A    between atoms: _316  and  _317
REMARK  137  A    between atoms: _316  and  _319
REMARK  138  A    between atoms: _319  and  _320
REMARK  139  A    between atoms: _320  and  _321
REMARK  140  A    between atoms: _321  and  _322
REMARK  141  A    between atoms: _322  and  _323
REMARK  142  A    between atoms: _327  and  _329
REMARK  143  A    between atoms: _329  and  _330
REMARK  144  A    between atoms: _329  and  _332
REMARK  145  A    between atoms: _332  and  _333
REMARK  146  A    between atoms: _339  and  _341
REMARK  147  A    between atoms: _341  and  _342
REMARK  148  A    between atoms: _344  and  _346
REMARK  149  A    between atoms: _346  and  _347
REMARK  150  A    between atoms: _346  and  _349
REMARK  151  A    between atoms: _349  and  _350
REMARK  152  A    between atoms: _355  and  _357
REMARK  153  A    between atoms: _357  and  _358
REMARK  154  A    between atoms: _360  and  _362
REMARK  155  A    between atoms: _362  and  _363
REMARK  156  A    between atoms: _362  and  _365
REMARK  157  A    between atoms: _365  and  _366
REMARK  158  A    between atoms: _366  and  _367
REMARK  159  A    between atoms: _369  and  _371
REMARK  160  A    between atoms: _371  and  _372
REMARK  161  A    between atoms: _371  and  _374
REMARK  162  A    between atoms: _374  and  _375
REMARK  163  A    between atoms: _381  and  _383
REMARK  164  A    between atoms: _383  and  _384
REMARK  165  A    between atoms: _383  and  _386
REMARK  166  A    between atoms: _386  and  _387
REMARK  167  A    between atoms: _390  and  _392
REMARK  168  A    between atoms: _392  and  _393
REMARK  169  A    between atoms: _392  and  _395
REMARK  170  A    between atoms: _397  and  _399
REMARK  171  A    between atoms: _399  and  _400
REMARK  172  A    between atoms: _399  and  _402
REMARK  173  A    between atoms: _402  and  _403
REMARK  174  A    between atoms: _406  and  _408
REMARK  175  A    between atoms: _408  and  _409
REMARK  176  A    between atoms: _408  and  _411
REMARK  177  A    between atoms: _411  and  _412
REMARK  178  A    between atoms: _417  and  _419
REMARK  179  A    between atoms: _419  and  _420
REMARK  180  A    between atoms: _419  and  _422
REMARK  181  A    between atoms: _422  and  _423
REMARK  182  A    between atoms: _423  and  _424
REMARK  183  A    between atoms: _424  and  _425
REMARK  184  A    between atoms: _434  and  _436
REMARK  185  A    between atoms: _436  and  _437
REMARK  186  A    between atoms: _436  and  _439
REMARK  187  A    between atoms: _439  and  _440
REMARK  188  A    between atoms: _443  and  _445
REMARK  189  A    between atoms: _445  and  _446
REMARK  190  A    between atoms: _445  and  _448
REMARK  191  A    between atoms: _448  and  _449
REMARK  192  A    between atoms: _452  and  _454
REMARK  193  A    between atoms: _454  and  _455
REMARK  194  A    between atoms: _454  and  _457
REMARK  195  A    between atoms: _457  and  _458
REMARK  196  A    between atoms: _458  and  _459
REMARK  197  A    between atoms: _459  and  _460
REMARK  198  A    between atoms: _469  and  _471
REMARK  199  A    between atoms: _471  and  _472
REMARK  200  A    between atoms: _471  and  _474
REMARK  201  A    between atoms: _474  and  _475
REMARK  202  A    between atoms: _480  and  _482
REMARK  203  A    between atoms: _482  and  _483
REMARK  204  A    between atoms: _482  and  _485
REMARK  205  A    between atoms: _485  and  _486
REMARK  206  A    between atoms: _489  and  _491
REMARK  207  A    between atoms: _491  and  _492
REMARK  208  A    between atoms: _491  and  _494
REMARK  209  A    between atoms: _494  and  _495
REMARK  210  A    between atoms: _498  and  _500
REMARK  211  A    between atoms: _500  and  _501
REMARK  212  A    between atoms: _500  and  _503
REMARK  213  A    between atoms: _503  and  _504
REMARK  214  A    between atoms: _507  and  _509
REMARK  215  A    between atoms: _509  and  _510
REMARK  216  A    between atoms: _509  and  _512
REMARK  217  A    between atoms: _512  and  _513
REMARK  218  A    between atoms: _515  and  _517
REMARK  219  A    between atoms: _517  and  _518
REMARK  220  A    between atoms: _517  and  _520
REMARK  221  A    between atoms: _520  and  _521
REMARK  222  A    between atoms: _521  and  _522
REMARK  223  A    between atoms: _522  and  _523
REMARK  224  A    between atoms: _523  and  _524
REMARK  225  A    between atoms: _528  and  _530
REMARK  226  A    between atoms: _530  and  _531
REMARK  227  A    between atoms: _530  and  _533
REMARK  228  A    between atoms: _533  and  _534
REMARK  229  A    between atoms: _537  and  _539
REMARK  230  A    between atoms: _539  and  _540
REMARK  231  A    between atoms: _539  and  _542
REMARK  232  A    between atoms: _544  and  _546
REMARK  233  A    between atoms: _546  and  _547
REMARK  234  A    between atoms: _546  and  _549
REMARK  235  A    between atoms: _549  and  _550
REMARK  236  A    between atoms: _553  and  _555
REMARK  237  A    between atoms: _555  and  _556
REMARK  238  A    between atoms: _555  and  _558
REMARK  239  A    between atoms: _558  and  _559
REMARK  240  A    between atoms: _565  and  _567
REMARK  241  A    between atoms: _567  and  _568
REMARK  242  A    between atoms: _570  and  _572
REMARK  243  A    between atoms: _572  and  _573
REMARK  244  A    between atoms: _572  and  _575
REMARK  245  A    between atoms: _575  and  _576
REMARK  246  A    between atoms: _579  and  _581
REMARK  247  A    between atoms: _581  and  _582
REMARK  248  A    between atoms: _585  and  _587
REMARK  249  A    between atoms: _587  and  _588
REMARK  250  A    between atoms: _587  and  _590
REMARK  251  A    between atoms: _590  and  _591
REMARK  252  A    between atoms: _591  and  _592
REMARK  253  A    between atoms: _592  and  _593
REMARK                            x       y       z     vdW  Elec       q    Type
REMARK                         _______ _______ _______ _____ _____    ______ ____
ROOT
ATOM      1  C   PHE A   5     -22.271   7.194 -15.258  0.00  0.00    +0.241 C 
ATOM      2  N   CYS A   6     -21.269   6.613 -14.611  0.00  0.00    -0.296 N 
ATOM      3  H   CYS A   6     -21.001   5.643 -14.872  0.00  0.00    +0.150 HD
ATOM      4  O   PHE A   5     -22.627   8.337 -15.035  0.00  0.00    -0.273 OA
ENDROOT
BRANCH   1   5
ATOM      5  CA  PHE A   5     -22.993   6.350 -16.297  0.00  0.00    +0.153 C 
BRANCH   5   8
ATOM      6  C   GLU A   4     -25.142   5.864 -15.250  0.00  0.00    +0.241 C 
ATOM      7  O   GLU A   4     -24.697   4.911 -14.592  0.00  0.00    -0.273 OA
ATOM      8  N   PHE A   5     -24.417   6.547 -16.133  0.00  0.00    -0.297 N 
ATOM      9  H   PHE A   5     -24.894   7.252 -16.730  0.00  0.00    +0.150 HD
BRANCH   6  10
ATOM     10  CA  GLU A   4     -26.609   6.314 -15.129  0.00  0.00    +0.149 C 
BRANCH  10  12
ATOM     11  C   VAL A   3     -27.665   4.237 -15.793  0.00  0.00    +0.241 C 
ATOM     12  N   GLU A   4     -27.555   5.220 -14.899  0.00  0.00    -0.297 N 
ATOM     13  H   GLU A   4     -28.140   5.210 -14.039  0.00  0.00    +0.150 HD
ATOM     14  O   VAL A   3     -27.015   4.208 -16.858  0.00  0.00    -0.273 OA
BRANCH  11  15
ATOM     15  CA  VAL A   3     -28.606   3.108 -15.425  0.00  0.00    +0.149 C 
BRANCH  15  18
ATOM     16  C   ILE A   2     -30.070   1.981 -17.025  0.00  0.00    +0.241 C 
ATOM     17  O   ILE A   2     -31.097   2.428 -16.507  0.00  0.00    -0.273 OA
ATOM     18  N   VAL A   3     -28.844   2.242 -16.578  0.00  0.00    -0.297 N 
ATOM     19  H   VAL A   3     -28.029   1.816 -17.065  0.00  0.00    +0.150 HD
BRANCH  16  20
ATOM     20  CA  ILE A   2     -30.151   1.067 -18.232  0.00  0.00    +0.148 C 
BRANCH  20  23
ATOM     21  C   VAL A   1     -30.273  -1.312 -17.644  0.00  0.00    +0.238 C 
ATOM     22  O   VAL A   1     -29.045  -1.414 -17.487  0.00  0.00    -0.274 OA
ATOM     23  N   ILE A   2     -30.890  -0.162 -17.916  0.00  0.00    -0.297 N 
ATOM     24  H   ILE A   2     -31.930  -0.134 -17.904  0.00  0.00    +0.150 HD
BRANCH  21  25
ATOM     25  CA  VAL A   1     -31.200  -2.539 -17.569  0.00  0.00    +0.145 C 
BRANCH  25  26
ATOM     26  CB  VAL A   1     -31.077  -3.272 -16.226  0.00  0.00    +0.025 C 
ATOM     27  CG2 VAL A   1     -31.542  -2.355 -15.058  0.00  0.00    +0.002 C 
ATOM     28  CG1 VAL A   1     -31.922  -4.567 -16.252  0.00  0.00    +0.002 C 
ENDBRANCH  25  26
BRANCH  25  29
ATOM     29  N   VAL A   1     -30.884  -3.408 -18.700  0.00  0.00    -0.238 NA
ATOM     30  H   VAL A   1     -29.980  -3.923 -18.703  0.00  0.00    +0.142 HD
ENDBRANCH  25  29
ENDBRANCH  21  25
ENDBRANCH  20  23
BRANCH  20  31
ATOM     31  CB  ILE A   2     -30.788   1.837 -19.405  0.00  0.00    +0.027 C 
ATOM     32  CG2 ILE A   2     -29.858   2.991 -19.833  0.00  0.00    +0.002 C 
BRANCH  31  33
ATOM     33  CG1 ILE A   2     -31.088   0.894 -20.591  0.00  0.00    +0.002 C 
ATOM     34  CD1 ILE A   2     -32.119   1.481 -21.569  0.00  0.00    +0.000 C 
ENDBRANCH  31  33
ENDBRANCH  20  31
ENDBRANCH  16  20
ENDBRANCH  15  18
BRANCH  15  35
ATOM     35  CB  VAL A   3     -28.002   2.346 -14.202  0.00  0.00    +0.027 C 
ATOM     36  CG2 VAL A   3     -28.905   1.193 -13.763  0.00  0.00    +0.002 C 
ATOM     37  CG1 VAL A   3     -26.571   1.867 -14.472  0.00  0.00    +0.002 C 
ENDBRANCH  15  35
ENDBRANCH  11  15
ENDBRANCH  10  12
BRANCH  10  38
ATOM     38  CB  GLU A   4     -26.773   7.422 -14.090  0.00  0.00    +0.041 C 
BRANCH  38  39
ATOM     39  CG  GLU A   4     -26.471   7.038 -12.670  0.00  0.00    +0.116 C 
BRANCH  39  40
ATOM     40  CD  GLU A   4     -26.836   8.151 -11.702  0.00  0.00    +0.365 C 
ATOM     41  OE2 GLU A   4     -27.356   7.837 -10.621  0.00  0.00    -0.246 OA
ATOM     42  OE1 GLU A   4     -26.594   9.349 -12.013  0.00  0.00    -0.246 OA
ENDBRANCH  39  40
ENDBRANCH  38  39
ENDBRANCH  10  38
ENDBRANCH   6  10
ENDBRANCH   5   8
BRANCH   5  43
ATOM     43  CB  PHE A   5     -22.582   6.765 -17.713  0.00  0.00    +0.055 C 
BRANCH  43  44
ATOM     44  CG  PHE A   5     -21.106   6.677 -17.973  0.00  0.00    -0.020 A 
ATOM     45  CD2 PHE A   5     -20.333   7.830 -18.047  0.00  0.00    -0.004 A 
ATOM     46  CE2 PHE A   5     -18.952   7.745 -18.305  0.00  0.00    -0.000 A 
ATOM     47  CZ  PHE A   5     -18.359   6.521 -18.485  0.00  0.00    -0.000 A 
ATOM     48  CE1 PHE A   5     -19.129   5.357 -18.420  0.00  0.00    -0.000 A 
ATOM     49  CD1 PHE A   5     -20.494   5.443 -18.167  0.00  0.00    -0.004 A 
ENDBRANCH  43  44
ENDBRANCH   5  43
ENDBRANCH   1   5
BRANCH   2  50
ATOM     50  CA  CYS A   6     -20.528   7.282 -13.547  0.00  0.00    +0.160 C 
BRANCH  50  51
ATOM     51  C   CYS A   6     -19.093   7.435 -14.010  0.00  0.00    +0.242 C 
ATOM     52  O   CYS A   6     -18.325   6.487 -14.001  0.00  0.00    -0.273 OA
ATOM     53  N   LYS A   7     -18.758   8.647 -14.424  0.00  0.00    -0.297 N 
ATOM     54  H   LYS A   7     -19.415   9.430 -14.234  0.00  0.00    +0.150 HD
BRANCH  53  55
ATOM     55  CA  LYS A   7     -17.516   8.944 -15.133  0.00  0.00    +0.149 C 
BRANCH  55  56
ATOM     56  C   LYS A   7     -16.254   8.235 -14.640  0.00  0.00    +0.241 C 
ATOM     57  N   PHE A   8     -16.054   8.205 -13.328  0.00  0.00    -0.297 N 
ATOM     58  H   PHE A   8     -16.829   8.472 -12.689  0.00  0.00    +0.150 HD
ATOM     59  O   LYS A   7     -15.478   7.725 -15.444  0.00  0.00    -0.273 OA
BRANCH  57  60
ATOM     60  CA  PHE A   8     -14.759   7.802 -12.760  0.00  0.00    +0.153 C 
BRANCH  60  61
ATOM     61  C   PHE A   8     -14.666   6.338 -12.318  0.00  0.00    +0.241 C 
ATOM     62  O   PHE A   8     -13.636   5.917 -11.781  0.00  0.00    -0.273 OA
ATOM     63  N   GLY A   9     -15.738   5.579 -12.555  0.00  0.00    -0.295 N 
ATOM     64  H   GLY A   9     -16.587   6.030 -12.953  0.00  0.00    +0.150 HD
BRANCH  63  65
ATOM     65  CA  GLY A   9     -15.774   4.141 -12.281  0.00  0.00    +0.176 C 
BRANCH  65  66
ATOM     66  C   GLY A   9     -15.796   3.817 -10.797  0.00  0.00    +0.243 C 
ATOM     67  O   GLY A   9     -16.201   4.647  -9.974  0.00  0.00    -0.273 OA
ATOM     68  N   ASN A  10     -15.353   2.615 -10.448  0.00  0.00    -0.298 N 
ATOM     69  H   ASN A  10     -14.952   1.989 -11.175  0.00  0.00    +0.150 HD
BRANCH  68  70
ATOM     70  CA  ASN A  10     -15.417   2.153  -9.063  0.00  0.00    +0.146 C 
BRANCH  70  71
ATOM     71  C   ASN A  10     -14.436   2.889  -8.149  0.00  0.00    +0.227 C 
ATOM     72  O   ASN A  10     -13.334   3.264  -8.564  0.00  0.00    -0.286 OA
ENDBRANCH  70  71
BRANCH  70  73
ATOM     73  CB  ASN A  10     -15.252   0.622  -8.960  0.00  0.00    +0.112 C 
BRANCH  73  74
ATOM     74  CG  ASN A  10     -13.786   0.176  -8.917  0.00  0.00    +0.222 C 
ATOM     75  OD1 ASN A  10     -13.165   0.118  -7.846  0.00  0.00    -0.275 OA
ATOM     76  ND2 ASN A  10     -13.238  -0.163 -10.085  0.00  0.00    -0.329 N 
ATOM     77 HD21 ASN A  10     -12.252  -0.492 -10.121  0.00  0.00    +0.145 HD
ATOM     78 HD22 ASN A  10     -13.797  -0.099 -10.960  0.00  0.00    +0.145 HD
ENDBRANCH  73  74
ENDBRANCH  70  73
ENDBRANCH  68  70
ENDBRANCH  65  66
ENDBRANCH  63  65
ENDBRANCH  60  61
BRANCH  60  79
ATOM     79  CB  PHE A   8     -14.357   8.766 -11.637  0.00  0.00    +0.055 C 
BRANCH  79  80
ATOM     80  CG  PHE A   8     -14.072  10.160 -12.133  0.00  0.00    -0.020 A 
ATOM     81  CD2 PHE A   8     -15.062  11.148 -12.093  0.00  0.00    -0.004 A 
ATOM     82  CE2 PHE A   8     -14.815  12.434 -12.576  0.00  0.00    -0.000 A 
ATOM     83  CZ  PHE A   8     -13.550  12.754 -13.117  0.00  0.00    -0.000 A 
ATOM     84  CE1 PHE A   8     -12.556  11.768 -13.174  0.00  0.00    -0.000 A 
ATOM     85  CD1 PHE A   8     -12.828  10.472 -12.687  0.00  0.00    -0.004 A 
ENDBRANCH  79  80
ENDBRANCH  60  79
ENDBRANCH  57  60
ENDBRANCH  55  56
BRANCH  55  86
ATOM     86  CB  LYS A   7     -17.290  10.458 -15.157  0.00  0.00    +0.029 C 
BRANCH  86  87
ATOM     87  CG  LYS A   7     -16.836  10.964 -16.508  0.00  0.00    +0.000 C 
BRANCH  87  88
ATOM     88  CD  LYS A   7     -15.353  11.276 -16.532  0.00  0.00    -0.024 C 
BRANCH  88  89
ATOM     89  CE  LYS A   7     -15.084  12.743 -16.247  0.00  0.00    -0.086 C 
BRANCH  89  90
ATOM     90  NZ  LYS A   7     -15.193  13.592 -17.465  0.00  0.00    +0.380 N 
ATOM     91  HZ1 LYS A   7     -15.000  14.583 -17.214  0.00  0.00    -0.089 HD
ATOM     92  HZ2 LYS A   7     -16.153  13.513 -17.856  0.00  0.00    -0.089 HD
ATOM     93  HZ3 LYS A   7     -14.501  13.271 -18.173  0.00  0.00    -0.089 HD
ENDBRANCH  89  90
ENDBRANCH  88  89
ENDBRANCH  87  88
ENDBRANCH  86  87
ENDBRANCH  55  86
ENDBRANCH  53  55
ENDBRANCH  50  51
BRANCH  50  94
ATOM     94  CB  CYS A   6     -20.601   6.485 -12.232  0.00  0.00    +0.098 C 
ATOM     95  SG  CYS A   6     -22.279   6.437 -11.495  0.00  0.00    -0.080 S 
ENDBRANCH  50  94
ENDBRANCH   2  50
TORSDOF 39
REMARK  Name = ../refined-set-2016/4asd/4asd_pocket.pdb
REMARK  253 active torsions:
REMARK  status: ('A' for Active; 'I' for Inactive)
REMARK    1  A    between atoms: _1  and  _3
REMARK    2  A    between atoms: _3  and  _4
REMARK    3  A    between atoms: _3  and  _6
REMARK    4  A    between atoms: _6  and  _7
REMARK    5  A    between atoms: _10  and  _12
REMARK    6  A    between atoms: _12  and  _13
REMARK    7  A    between atoms: _12  and  _15
REMARK    8  A    between atoms: _15  and  _16
REMARK    9  A    between atoms: _19  and  _21
REMARK   10  A    between atoms: _21  and  _22
REMARK   11  A    between atoms: _21  and  _24
REMARK   12  A    between atoms: _24  and  _25
REMARK   13  A    between atoms: _25  and  _26
REMARK   14  A    between atoms: _26  and  _27
REMARK   15  A    between atoms: _27  and  _28
REMARK   16  A    between atoms: _33  and  _34
REMARK   17  A    between atoms: _39  and  _41
REMARK   18  A    between atoms: _41  and  _42
REMARK   19  A    between atoms: _41  and  _44
REMARK   20  A    between atoms: _44  and  _45
REMARK   21  A    between atoms: _48  and  _50
REMARK   22  A    between atoms: _50  and  _51
REMARK   23  A    between atoms: _53  and  _55
REMARK   24  A    between atoms: _55  and  _56
REMARK   25  A    between atoms: _55  and  _58
REMARK   26  A    between atoms: _58  and  _59
REMARK   27  A    between atoms: _59  and  _60
REMARK   28  A    between atoms: _65  and  _67
REMARK   29  A    between atoms: _67  and  _68
REMARK   30  A    between atoms: _67  and  _70
REMARK   31  A    between atoms: _73  and  _75
REMARK   32  A    between atoms: _75  and  _76
REMARK   33  A    between atoms: _75  and  _78
REMARK   34  A    between atoms: _78  and  _79
REMARK   35  A    between atoms: _82  and  _84
REMARK   36  A    between atoms: _84  and  _85
REMARK   37  A    between atoms: _84  and  _87
REMARK   38  A    between atoms: _87  and  _88
REMARK   39  A    between atoms: _88  and  _89
REMARK   40  A    between atoms: _92  and  _94
REMARK   41  A    between atoms: _94  and  _95
REMARK   42  A    between atoms: _94  and  _97
REMARK   43  A    between atoms: _97  and  _98
REMARK   44  A    between atoms: _101  and  _103
REMARK   45  A    between atoms: _103  and  _104
REMARK   46  A    between atoms: _103  and  _106
REMARK   47  A    between atoms: _109  and  _111
REMARK   48  A    between atoms: _111  and  _112
REMARK   49  A    between atoms: _115  and  _117
REMARK   50  A    between atoms: _117  and  _118
REMARK   51  A    between atoms: _117  and  _120
REMARK   52  A    between atoms: _123  and  _125
REMARK   53  A    between atoms: _125  and  _126
REMARK   54  A    between atoms: _125  and  _128
REMARK   55  A    between atoms: _128  and  _129
REMARK   56  A    between atoms: _129  and  _130
REMARK   57  A    between atoms: _130  and  _131
REMARK   58  A    between atoms: _131  and  _132
REMARK   59  A    between atoms: _136  and  _138
REMARK   60  A    between atoms: _138  and  _139
REMARK   61  A    between atoms: _138  and  _141
REMARK   62  A    between atoms: _141  and  _142
REMARK   63  A    between atoms: _142  and  _143
REMARK   64  A    between atoms: _145  and  _147
REMARK   65  A    between atoms: _147  and  _148
REMARK   66  A    between atoms: _147  and  _150
REMARK   67  A    between atoms: _150  and  _151
REMARK   68  A    between atoms: _154  and  _156
REMARK   69  A    between atoms: _156  and  _157
REMARK   70  A    between atoms: _156  and  _159
REMARK   71  A    between atoms: _159  and  _160
REMARK   72  A    between atoms: _162  and  _164
REMARK   73  A    between atoms: _164  and  _165
REMARK   74  A    between atoms: _164  and  _167
REMARK   75  A    between atoms: _167  and  _168
REMARK   76  A    between atoms: _168  and  _169
REMARK   77  A    between atoms: _172  and  _174
REMARK   78  A    between atoms: _174  and  _175
REMARK   79  A    between atoms: _174  and  _177
REMARK   80  A    between atoms: _177  and  _178
REMARK   81  A    between atoms: _181  and  _183
REMARK   82  A    between atoms: _183  and  _184
REMARK   83  A    between atoms: _183  and  _186
REMARK   84  A    between atoms: _186  and  _187
REMARK   85  A    between atoms: _190  and  _192
REMARK   86  A    between atoms: _192  and  _193
REMARK   87  A    between atoms: _192  and  _195
REMARK   88  A    between atoms: _195  and  _196
REMARK   89  A    between atoms: _199  and  _201
REMARK   90  A    between atoms: _201  and  _202
REMARK   91  A    between atoms: _201  and  _204
REMARK   92  A    between atoms: _204  and  _205
REMARK   93  A    between atoms: _208  and  _210
REMARK   94  A    between atoms: _210  and  _211
REMARK   95  A    between atoms: _213  and  _215
REMARK   96  A    between atoms: _215  and  _216
REMARK   97  A    between atoms: _215  and  _218
REMARK   98  A    between atoms: _218  and  _219
REMARK   99  A    between atoms: _224  and  _226
REMARK  100  A    between atoms: _226  and  _227
REMARK  101  A    between atoms: _226  and  _229
REMARK  102  A    between atoms: _232  and  _234
REMARK  103  A    between atoms: _234  and  _235
REMARK  104  A    between atoms: _234  and  _237
REMARK  105  A    between atoms: _240  and  _242
REMARK  106  A    between atoms: _242  and  _243
REMARK  107  A    between atoms: _242  and  _245
REMARK  108  A    between atoms: _245  and  _246
REMARK  109  A    between atoms: _251  and  _253
REMARK  110  A    between atoms: _253  and  _254
REMARK  111  A    between atoms: _253  and  _256
REMARK  112  A    between atoms: _256  and  _257
REMARK  113  A    between atoms: _260  and  _262
REMARK  114  A    between atoms: _262  and  _263
REMARK  115  A    between atoms: _262  and  _265
REMARK  116  A    between atoms: _268  and  _270
REMARK  117  A    between atoms: _270  and  _271
REMARK  118  A    between atoms: _270  and  _273
REMARK  119  A    between atoms: _273  and  _274
REMARK  120  A    between atoms: _277  and  _279
REMARK  121  A    between atoms: _279  and  _280
REMARK  122  A    between atoms: _279  and  _282
REMARK  123  A    between atoms: _285  and  _287
REMARK  124  A    between atoms: _287  and  _288
REMARK  125  A    between atoms: _287  and  _290
REMARK  126  A    between atoms: _290  and  _291
REMARK  127  A    between atoms: _291  and  _292
REMARK  128  A    between atoms: _295  and  _297
REMARK  129  A    between atoms: _297  and  _298
REMARK  130  A    between atoms: _297  and  _300
REMARK  131  A    between atoms: _300  and  _301
REMARK  132  A    between atoms: _307  and  _309
REMARK  133  A    between atoms: _309  and  _310
REMARK  134  A    between atoms: _309  and  _312
REMARK  135  A    between atoms: _314  and  _316
REMARK  136  A    between atoms: _316  and  _317
REMARK  137  A    between atoms: _316  and  _319
REMARK  138  A    between atoms: _319  and  _320
REMARK  139  A    between atoms: _320  and  _321
REMARK  140  A    between atoms: _321  and  _322
REMARK  141  A    between atoms: _322  and  _323
REMARK  142  A    between atoms: _327  and  _329
REMARK  143  A    between atoms: _329  and  _330
REMARK  144  A    between atoms: _329  and  _332
REMARK  145  A    between atoms: _332  and  _333
REMARK  146  A    between atoms: _339  and  _341
REMARK  147  A    between atoms: _341  and  _342
REMARK  148  A    between atoms: _344  and  _346
REMARK  149  A    between atoms: _346  and  _347
REMARK  150  A    between atoms: _346  and  _349
REMARK  151  A    between atoms: _349  and  _350
REMARK  152  A    between atoms: _355  and  _357
REMARK  153  A    between atoms: _357  and  _358
REMARK  154  A    between atoms: _360  and  _362
REMARK  155  A    between atoms: _362  and  _363
REMARK  156  A    between atoms: _362  and  _365
REMARK  157  A    between atoms: _365  and  _366
REMARK  158  A    between atoms: _366  and  _367
REMARK  159  A    between atoms: _369  and  _371
REMARK  160  A    between atoms: _371  and  _372
REMARK  161  A    between atoms: _371  and  _374
REMARK  162  A    between atoms: _374  and  _375
REMARK  163  A    between atoms: _381  and  _383
REMARK  164  A    between atoms: _383  and  _384
REMARK  165  A    between atoms: _383  and  _386
REMARK  166  A    between atoms: _386  and  _387
REMARK  167  A    between atoms: _390  and  _392
REMARK  168  A    between atoms: _392  and  _393
REMARK  169  A    between atoms: _392  and  _395
REMARK  170  A    between atoms: _397  and  _399
REMARK  171  A    between atoms: _399  and  _400
REMARK  172  A    between atoms: _399  and  _402
REMARK  173  A    between atoms: _402  and  _403
REMARK  174  A    between atoms: _406  and  _408
REMARK  175  A    between atoms: _408  and  _409
REMARK  176  A    between atoms: _408  and  _411
REMARK  177  A    between atoms: _411  and  _412
REMARK  178  A    between atoms: _417  and  _419
REMARK  179  A    between atoms: _419  and  _420
REMARK  180  A    between atoms: _419  and  _422
REMARK  181  A    between atoms: _422  and  _423
REMARK  182  A    between atoms: _423  and  _424
REMARK  183  A    between atoms: _424  and  _425
REMARK  184  A    between atoms: _434  and  _436
REMARK  185  A    between atoms: _436  and  _437
REMARK  186  A    between atoms: _436  and  _439
REMARK  187  A    between atoms: _439  and  _440
REMARK  188  A    between atoms: _443  and  _445
REMARK  189  A    between atoms: _445  and  _446
REMARK  190  A    between atoms: _445  and  _448
REMARK  191  A    between atoms: _448  and  _449
REMARK  192  A    between atoms: _452  and  _454
REMARK  193  A    between atoms: _454  and  _455
REMARK  194  A    between atoms: _454  and  _457
REMARK  195  A    between atoms: _457  and  _458
REMARK  196  A    between atoms: _458  and  _459
REMARK  197  A    between atoms: _459  and  _460
REMARK  198  A    between atoms: _469  and  _471
REMARK  199  A    between atoms: _471  and  _472
REMARK  200  A    between atoms: _471  and  _474
REMARK  201  A    between atoms: _474  and  _475
REMARK  202  A    between atoms: _480  and  _482
REMARK  203  A    between atoms: _482  and  _483
REMARK  204  A    between atoms: _482  and  _485
REMARK  205  A    between atoms: _485  and  _486
REMARK  206  A    between atoms: _489  and  _491
REMARK  207  A    between atoms: _491  and  _492
REMARK  208  A    between atoms: _491  and  _494
REMARK  209  A    between atoms: _494  and  _495
REMARK  210  A    between atoms: _498  and  _500
REMARK  211  A    between atoms: _500  and  _501
REMARK  212  A    between atoms: _500  and  _503
REMARK  213  A    between atoms: _503  and  _504
REMARK  214  A    between atoms: _507  and  _509
REMARK  215  A    between atoms: _509  and  _510
REMARK  216  A    between atoms: _509  and  _512
REMARK  217  A    between atoms: _512  and  _513
REMARK  218  A    between atoms: _515  and  _517
REMARK  219  A    between atoms: _517  and  _518
REMARK  220  A    between atoms: _517  and  _520
REMARK  221  A    between atoms: _520  and  _521
REMARK  222  A    between atoms: _521  and  _522
REMARK  223  A    between atoms: _522  and  _523
REMARK  224  A    between atoms: _523  and  _524
REMARK  225  A    between atoms: _528  and  _530
REMARK  226  A    between atoms: _530  and  _531
REMARK  227  A    between atoms: _530  and  _533
REMARK  228  A    between atoms: _533  and  _534
REMARK  229  A    between atoms: _537  and  _539
REMARK  230  A    between atoms: _539  and  _540
REMARK  231  A    between atoms: _539  and  _542
REMARK  232  A    between atoms: _544  and  _546
REMARK  233  A    between atoms: _546  and  _547
REMARK  234  A    between atoms: _546  and  _549
REMARK  235  A    between atoms: _549  and  _550
REMARK  236  A    between atoms: _553  and  _555
REMARK  237  A    between atoms: _555  and  _556
REMARK  238  A    between atoms: _555  and  _558
REMARK  239  A    between atoms: _558  and  _559
REMARK  240  A    between atoms: _565  and  _567
REMARK  241  A    between atoms: _567  and  _568
REMARK  242  A    between atoms: _570  and  _572
REMARK  243  A    between atoms: _572  and  _573
REMARK  244  A    between atoms: _572  and  _575
REMARK  245  A    between atoms: _575  and  _576
REMARK  246  A    between atoms: _579  and  _581
REMARK  247  A    between atoms: _581  and  _582
REMARK  248  A    between atoms: _585  and  _587
REMARK  249  A    between atoms: _587  and  _588
REMARK  250  A    between atoms: _587  and  _590
REMARK  251  A    between atoms: _590  and  _591
REMARK  252  A    between atoms: _591  and  _592
REMARK  253  A    between atoms: _592  and  _593
REMARK                            x       y       z     vdW  Elec       q    Type
REMARK                         _______ _______ _______ _____ _____    ______ ____
ROOT
ATOM      1  C   GLY A   1     -27.905   4.646   0.861  0.00  0.00    +0.240 C 
ATOM      2  N   MET A   2     -27.137   4.158   1.835  0.00  0.00    -0.298 N 
ATOM      3  H   MET A   2     -26.261   4.659   2.086  0.00  0.00    +0.150 HD
ATOM      4  O   GLY A   1     -28.950   4.098   0.499  0.00  0.00    -0.274 OA
ENDROOT
BRANCH   1   5
ATOM      5  CA  GLY A   1     -27.440   5.950   0.191  0.00  0.00    +0.169 C 
BRANCH   5   6
ATOM      6  N   GLY A   1     -26.893   6.935   1.141  0.00  0.00    -0.236 NA
ATOM      7  H   GLY A   1     -25.920   7.279   1.010  0.00  0.00    +0.142 HD
ENDBRANCH   5   6
ENDBRANCH   1   5
BRANCH   2   8
ATOM      8  CA  MET A   2     -27.494   2.928   2.568  0.00  0.00    +0.138 C 
BRANCH   8   9
ATOM      9  C   MET A   2     -28.705   3.125   3.505  0.00  0.00    +0.227 C 
ATOM     10  O   MET A   2     -29.557   2.224   3.661  0.00  0.00    -0.286 OA
ENDBRANCH   8   9
BRANCH   8  11
ATOM     11  CB  MET A   2     -26.284   2.401   3.351  0.00  0.00    +0.039 C 
BRANCH  11  12
ATOM     12  CG  MET A   2     -25.235   1.652   2.503  0.00  0.00    +0.060 C 
BRANCH  12  13
ATOM     13  SD  MET A   2     -25.895   0.299   1.503  0.00  0.00    -0.139 S 
ATOM     14  CE  MET A   2     -26.539  -0.805   2.749  0.00  0.00    +0.069 C 
ENDBRANCH  12  13
ENDBRANCH  11  12
ENDBRANCH   8  11
ENDBRANCH   2   8
TORSDOF 7
REMARK  Name = ../refined-set-2016/4asd/4asd_pocket.pdb
REMARK  253 active torsions:
REMARK  status: ('A' for Active; 'I' for Inactive)
REMARK    1  A    between atoms: _1  and  _3
REMARK    2  A    between atoms: _3  and  _4
REMARK    3  A    between atoms: _3  and  _6
REMARK    4  A    between atoms: _6  and  _7
REMARK    5  A    between atoms: _10  and  _12
REMARK    6  A    between atoms: _12  and  _13
REMARK    7  A    between atoms: _12  and  _15
REMARK    8  A    between atoms: _15  and  _16
REMARK    9  A    between atoms: _19  and  _21
REMARK   10  A    between atoms: _21  and  _22
REMARK   11  A    between atoms: _21  and  _24
REMARK   12  A    between atoms: _24  and  _25
REMARK   13  A    between atoms: _25  and  _26
REMARK   14  A    between atoms: _26  and  _27
REMARK   15  A    between atoms: _27  and  _28
REMARK   16  A    between atoms: _33  and  _34
REMARK   17  A    between atoms: _39  and  _41
REMARK   18  A    between atoms: _41  and  _42
REMARK   19  A    between atoms: _41  and  _44
REMARK   20  A    between atoms: _44  and  _45
REMARK   21  A    between atoms: _48  and  _50
REMARK   22  A    between atoms: _50  and  _51
REMARK   23  A    between atoms: _53  and  _55
REMARK   24  A    between atoms: _55  and  _56
REMARK   25  A    between atoms: _55  and  _58
REMARK   26  A    between atoms: _58  and  _59
REMARK   27  A    between atoms: _59  and  _60
REMARK   28  A    between atoms: _65  and  _67
REMARK   29  A    between atoms: _67  and  _68
REMARK   30  A    between atoms: _67  and  _70
REMARK   31  A    between atoms: _73  and  _75
REMARK   32  A    between atoms: _75  and  _76
REMARK   33  A    between atoms: _75  and  _78
REMARK   34  A    between atoms: _78  and  _79
REMARK   35  A    between atoms: _82  and  _84
REMARK   36  A    between atoms: _84  and  _85
REMARK   37  A    between atoms: _84  and  _87
REMARK   38  A    between atoms: _87  and  _88
REMARK   39  A    between atoms: _88  and  _89
REMARK   40  A    between atoms: _92  and  _94
REMARK   41  A    between atoms: _94  and  _95
REMARK   42  A    between atoms: _94  and  _97
REMARK   43  A    between atoms: _97  and  _98
REMARK   44  A    between atoms: _101  and  _103
REMARK   45  A    between atoms: _103  and  _104
REMARK   46  A    between atoms: _103  and  _106
REMARK   47  A    between atoms: _109  and  _111
REMARK   48  A    between atoms: _111  and  _112
REMARK   49  A    between atoms: _115  and  _117
REMARK   50  A    between atoms: _117  and  _118
REMARK   51  A    between atoms: _117  and  _120
REMARK   52  A    between atoms: _123  and  _125
REMARK   53  A    between atoms: _125  and  _126
REMARK   54  A    between atoms: _125  and  _128
REMARK   55  A    between atoms: _128  and  _129
REMARK   56  A    between atoms: _129  and  _130
REMARK   57  A    between atoms: _130  and  _131
REMARK   58  A    between atoms: _131  and  _132
REMARK   59  A    between atoms: _136  and  _138
REMARK   60  A    between atoms: _138  and  _139
REMARK   61  A    between atoms: _138  and  _141
REMARK   62  A    between atoms: _141  and  _142
REMARK   63  A    between atoms: _142  and  _143
REMARK   64  A    between atoms: _145  and  _147
REMARK   65  A    between atoms: _147  and  _148
REMARK   66  A    between atoms: _147  and  _150
REMARK   67  A    between atoms: _150  and  _151
REMARK   68  A    between atoms: _154  and  _156
REMARK   69  A    between atoms: _156  and  _157
REMARK   70  A    between atoms: _156  and  _159
REMARK   71  A    between atoms: _159  and  _160
REMARK   72  A    between atoms: _162  and  _164
REMARK   73  A    between atoms: _164  and  _165
REMARK   74  A    between atoms: _164  and  _167
REMARK   75  A    between atoms: _167  and  _168
REMARK   76  A    between atoms: _168  and  _169
REMARK   77  A    between atoms: _172  and  _174
REMARK   78  A    between atoms: _174  and  _175
REMARK   79  A    between atoms: _174  and  _177
REMARK   80  A    between atoms: _177  and  _178
REMARK   81  A    between atoms: _181  and  _183
REMARK   82  A    between atoms: _183  and  _184
REMARK   83  A    between atoms: _183  and  _186
REMARK   84  A    between atoms: _186  and  _187
REMARK   85  A    between atoms: _190  and  _192
REMARK   86  A    between atoms: _192  and  _193
REMARK   87  A    between atoms: _192  and  _195
REMARK   88  A    between atoms: _195  and  _196
REMARK   89  A    between atoms: _199  and  _201
REMARK   90  A    between atoms: _201  and  _202
REMARK   91  A    between atoms: _201  and  _204
REMARK   92  A    between atoms: _204  and  _205
REMARK   93  A    between atoms: _208  and  _210
REMARK   94  A    between atoms: _210  and  _211
REMARK   95  A    between atoms: _213  and  _215
REMARK   96  A    between atoms: _215  and  _216
REMARK   97  A    between atoms: _215  and  _218
REMARK   98  A    between atoms: _218  and  _219
REMARK   99  A    between atoms: _224  and  _226
REMARK  100  A    between atoms: _226  and  _227
REMARK  101  A    between atoms: _226  and  _229
REMARK  102  A    between atoms: _232  and  _234
REMARK  103  A    between atoms: _234  and  _235
REMARK  104  A    between atoms: _234  and  _237
REMARK  105  A    between atoms: _240  and  _242
REMARK  106  A    between atoms: _242  and  _243
REMARK  107  A    between atoms: _242  and  _245
REMARK  108  A    between atoms: _245  and  _246
REMARK  109  A    between atoms: _251  and  _253
REMARK  110  A    between atoms: _253  and  _254
REMARK  111  A    between atoms: _253  and  _256
REMARK  112  A    between atoms: _256  and  _257
REMARK  113  A    between atoms: _260  and  _262
REMARK  114  A    between atoms: _262  and  _263
REMARK  115  A    between atoms: _262  and  _265
REMARK  116  A    between atoms: _268  and  _270
REMARK  117  A    between atoms: _270  and  _271
REMARK  118  A    between atoms: _270  and  _273
REMARK  119  A    between atoms: _273  and  _274
REMARK  120  A    between atoms: _277  and  _279
REMARK  121  A    between atoms: _279  and  _280
REMARK  122  A    between atoms: _279  and  _282
REMARK  123  A    between atoms: _285  and  _287
REMARK  124  A    between atoms: _287  and  _288
REMARK  125  A    between atoms: _287  and  _290
REMARK  126  A    between atoms: _290  and  _291
REMARK  127  A    between atoms: _291  and  _292
REMARK  128  A    between atoms: _295  and  _297
REMARK  129  A    between atoms: _297  and  _298
REMARK  130  A    between atoms: _297  and  _300
REMARK  131  A    between atoms: _300  and  _301
REMARK  132  A    between atoms: _307  and  _309
REMARK  133  A    between atoms: _309  and  _310
REMARK  134  A    between atoms: _309  and  _312
REMARK  135  A    between atoms: _314  and  _316
REMARK  136  A    between atoms: _316  and  _317
REMARK  137  A    between atoms: _316  and  _319
REMARK  138  A    between atoms: _319  and  _320
REMARK  139  A    between atoms: _320  and  _321
REMARK  140  A    between atoms: _321  and  _322
REMARK  141  A    between atoms: _322  and  _323
REMARK  142  A    between atoms: _327  and  _329
REMARK  143  A    between atoms: _329  and  _330
REMARK  144  A    between atoms: _329  and  _332
REMARK  145  A    between atoms: _332  and  _333
REMARK  146  A    between atoms: _339  and  _341
REMARK  147  A    between atoms: _341  and  _342
REMARK  148  A    between atoms: _344  and  _346
REMARK  149  A    between atoms: _346  and  _347
REMARK  150  A    between atoms: _346  and  _349
REMARK  151  A    between atoms: _349  and  _350
REMARK  152  A    between atoms: _355  and  _357
REMARK  153  A    between atoms: _357  and  _358
REMARK  154  A    between atoms: _360  and  _362
REMARK  155  A    between atoms: _362  and  _363
REMARK  156  A    between atoms: _362  and  _365
REMARK  157  A    between atoms: _365  and  _366
REMARK  158  A    between atoms: _366  and  _367
REMARK  159  A    between atoms: _369  and  _371
REMARK  160  A    between atoms: _371  and  _372
REMARK  161  A    between atoms: _371  and  _374
REMARK  162  A    between atoms: _374  and  _375
REMARK  163  A    between atoms: _381  and  _383
REMARK  164  A    between atoms: _383  and  _384
REMARK  165  A    between atoms: _383  and  _386
REMARK  166  A    between atoms: _386  and  _387
REMARK  167  A    between atoms: _390  and  _392
REMARK  168  A    between atoms: _392  and  _393
REMARK  169  A    between atoms: _392  and  _395
REMARK  170  A    between atoms: _397  and  _399
REMARK  171  A    between atoms: _399  and  _400
REMARK  172  A    between atoms: _399  and  _402
REMARK  173  A    between atoms: _402  and  _403
REMARK  174  A    between atoms: _406  and  _408
REMARK  175  A    between atoms: _408  and  _409
REMARK  176  A    between atoms: _408  and  _411
REMARK  177  A    between atoms: _411  and  _412
REMARK  178  A    between atoms: _417  and  _419
REMARK  179  A    between atoms: _419  and  _420
REMARK  180  A    between atoms: _419  and  _422
REMARK  181  A    between atoms: _422  and  _423
REMARK  182  A    between atoms: _423  and  _424
REMARK  183  A    between atoms: _424  and  _425
REMARK  184  A    between atoms: _434  and  _436
REMARK  185  A    between atoms: _436  and  _437
REMARK  186  A    between atoms: _436  and  _439
REMARK  187  A    between atoms: _439  and  _440
REMARK  188  A    between atoms: _443  and  _445
REMARK  189  A    between atoms: _445  and  _446
REMARK  190  A    between atoms: _445  and  _448
REMARK  191  A    between atoms: _448  and  _449
REMARK  192  A    between atoms: _452  and  _454
REMARK  193  A    between atoms: _454  and  _455
REMARK  194  A    between atoms: _454  and  _457
REMARK  195  A    between atoms: _457  and  _458
REMARK  196  A    between atoms: _458  and  _459
REMARK  197  A    between atoms: _459  and  _460
REMARK  198  A    between atoms: _469  and  _471
REMARK  199  A    between atoms: _471  and  _472
REMARK  200  A    between atoms: _471  and  _474
REMARK  201  A    between atoms: _474  and  _475
REMARK  202  A    between atoms: _480  and  _482
REMARK  203  A    between atoms: _482  and  _483
REMARK  204  A    between atoms: _482  and  _485
REMARK  205  A    between atoms: _485  and  _486
REMARK  206  A    between atoms: _489  and  _491
REMARK  207  A    between atoms: _491  and  _492
REMARK  208  A    between atoms: _491  and  _494
REMARK  209  A    between atoms: _494  and  _495
REMARK  210  A    between atoms: _498  and  _500
REMARK  211  A    between atoms: _500  and  _501
REMARK  212  A    between atoms: _500  and  _503
REMARK  213  A    between atoms: _503  and  _504
REMARK  214  A    between atoms: _507  and  _509
REMARK  215  A    between atoms: _509  and  _510
REMARK  216  A    between atoms: _509  and  _512
REMARK  217  A    between atoms: _512  and  _513
REMARK  218  A    between atoms: _515  and  _517
REMARK  219  A    between atoms: _517  and  _518
REMARK  220  A    between atoms: _517  and  _520
REMARK  221  A    between atoms: _520  and  _521
REMARK  222  A    between atoms: _521  and  _522
REMARK  223  A    between atoms: _522  and  _523
REMARK  224  A    between atoms: _523  and  _524
REMARK  225  A    between atoms: _528  and  _530
REMARK  226  A    between atoms: _530  and  _531
REMARK  227  A    between atoms: _530  and  _533
REMARK  228  A    between atoms: _533  and  _534
REMARK  229  A    between atoms: _537  and  _539
REMARK  230  A    between atoms: _539  and  _540
REMARK  231  A    between atoms: _539  and  _542
REMARK  232  A    between atoms: _544  and  _546
REMARK  233  A    between atoms: _546  and  _547
REMARK  234  A    between atoms: _546  and  _549
REMARK  235  A    between atoms: _549  and  _550
REMARK  236  A    between atoms: _553  and  _555
REMARK  237  A    between atoms: _555  and  _556
REMARK  238  A    between atoms: _555  and  _558
REMARK  239  A    between atoms: _558  and  _559
REMARK  240  A    between atoms: _565  and  _567
REMARK  241  A    between atoms: _567  and  _568
REMARK  242  A    between atoms: _570  and  _572
REMARK  243  A    between atoms: _572  and  _573
REMARK  244  A    between atoms: _572  and  _575
REMARK  245  A    between atoms: _575  and  _576
REMARK  246  A    between atoms: _579  and  _581
REMARK  247  A    between atoms: _581  and  _582
REMARK  248  A    between atoms: _585  and  _587
REMARK  249  A    between atoms: _587  and  _588
REMARK  250  A    between atoms: _587  and  _590
REMARK  251  A    between atoms: _590  and  _591
REMARK  252  A    between atoms: _591  and  _592
REMARK  253  A    between atoms: _592  and  _593
REMARK                            x       y       z     vdW  Elec       q    Type
REMARK                         _______ _______ _______ _____ _____    ______ ____
ROOT
ATOM      1  C   PHE A   1     -32.505   3.787   1.439  0.00  0.00    +0.239 C 
ATOM      2  O   PHE A   1     -33.695   3.460   1.381  0.00  0.00    -0.274 OA
ATOM      3  N   LEU A   2     -31.514   2.958   1.121  0.00  0.00    -0.298 N 
ATOM      4  H   LEU A   2     -30.538   3.317   1.106  0.00  0.00    +0.150 HD
ENDROOT
BRANCH   1   5
ATOM      5  CA  PHE A   1     -32.121   5.208   1.860  0.00  0.00    +0.149 C 
BRANCH   5   6
ATOM      6  N   PHE A   1     -31.076   5.248   2.865  0.00  0.00    -0.238 NA
ATOM      7  H   PHE A   1     -30.181   5.724   2.630  0.00  0.00    +0.142 HD
ENDBRANCH   5   6
BRANCH   5   8
ATOM      8  CB  PHE A   1     -31.722   6.030   0.634  0.00  0.00    +0.053 C 
BRANCH   8   9
ATOM      9  CG  PHE A   1     -32.759   6.009  -0.468  0.00  0.00    -0.020 A 
ATOM     10  CD2 PHE A   1     -33.925   6.774  -0.366  0.00  0.00    -0.004 A 
ATOM     11  CE2 PHE A   1     -34.893   6.741  -1.370  0.00  0.00    -0.000 A 
ATOM     12  CZ  PHE A   1     -34.686   5.957  -2.508  0.00  0.00    -0.000 A 
ATOM     13  CE1 PHE A   1     -33.534   5.198  -2.626  0.00  0.00    -0.000 A 
ATOM     14  CD1 PHE A   1     -32.569   5.224  -1.609  0.00  0.00    -0.004 A 
ENDBRANCH   8   9
ENDBRANCH   5   8
ENDBRANCH   1   5
BRANCH   3  15
ATOM     15  CA  LEU A   2     -31.762   1.555   0.792  0.00  0.00    +0.137 C 
BRANCH  15  16
ATOM     16  C   LEU A   2     -32.564   0.865   1.912  0.00  0.00    +0.227 C 
ATOM     17  O   LEU A   2     -33.573   0.211   1.643  0.00  0.00    -0.286 OA
ENDBRANCH  15  16
BRANCH  15  18
ATOM     18  CB  LEU A   2     -30.441   0.805   0.483  0.00  0.00    +0.028 C 
BRANCH  18  19
ATOM     19  CG  LEU A   2     -29.869   1.041  -0.939  0.00  0.00    +0.002 C 
ATOM     20  CD2 LEU A   2     -28.518   0.305  -1.218  0.00  0.00    +0.000 C 
ATOM     21  CD1 LEU A   2     -30.884   0.654  -2.009  0.00  0.00    +0.000 C 
ENDBRANCH  18  19
ENDBRANCH  15  18
ENDBRANCH   3  15
TORSDOF 8
REMARK  Name = ../refined-set-2016/4asd/4asd_pocket.pdb
REMARK  253 active torsions:
REMARK  status: ('A' for Active; 'I' for Inactive)
REMARK    1  A    between atoms: _1  and  _3
REMARK    2  A    between atoms: _3  and  _4
REMARK    3  A    between atoms: _3  and  _6
REMARK    4  A    between atoms: _6  and  _7
REMARK    5  A    between atoms: _10  and  _12
REMARK    6  A    between atoms: _12  and  _13
REMARK    7  A    between atoms: _12  and  _15
REMARK    8  A    between atoms: _15  and  _16
REMARK    9  A    between atoms: _19  and  _21
REMARK   10  A    between atoms: _21  and  _22
REMARK   11  A    between atoms: _21  and  _24
REMARK   12  A    between atoms: _24  and  _25
REMARK   13  A    between atoms: _25  and  _26
REMARK   14  A    between atoms: _26  and  _27
REMARK   15  A    between atoms: _27  and  _28
REMARK   16  A    between atoms: _33  and  _34
REMARK   17  A    between atoms: _39  and  _41
REMARK   18  A    between atoms: _41  and  _42
REMARK   19  A    between atoms: _41  and  _44
REMARK   20  A    between atoms: _44  and  _45
REMARK   21  A    between atoms: _48  and  _50
REMARK   22  A    between atoms: _50  and  _51
REMARK   23  A    between atoms: _53  and  _55
REMARK   24  A    between atoms: _55  and  _56
REMARK   25  A    between atoms: _55  and  _58
REMARK   26  A    between atoms: _58  and  _59
REMARK   27  A    between atoms: _59  and  _60
REMARK   28  A    between atoms: _65  and  _67
REMARK   29  A    between atoms: _67  and  _68
REMARK   30  A    between atoms: _67  and  _70
REMARK   31  A    between atoms: _73  and  _75
REMARK   32  A    between atoms: _75  and  _76
REMARK   33  A    between atoms: _75  and  _78
REMARK   34  A    between atoms: _78  and  _79
REMARK   35  A    between atoms: _82  and  _84
REMARK   36  A    between atoms: _84  and  _85
REMARK   37  A    between atoms: _84  and  _87
REMARK   38  A    between atoms: _87  and  _88
REMARK   39  A    between atoms: _88  and  _89
REMARK   40  A    between atoms: _92  and  _94
REMARK   41  A    between atoms: _94  and  _95
REMARK   42  A    between atoms: _94  and  _97
REMARK   43  A    between atoms: _97  and  _98
REMARK   44  A    between atoms: _101  and  _103
REMARK   45  A    between atoms: _103  and  _104
REMARK   46  A    between atoms: _103  and  _106
REMARK   47  A    between atoms: _109  and  _111
REMARK   48  A    between atoms: _111  and  _112
REMARK   49  A    between atoms: _115  and  _117
REMARK   50  A    between atoms: _117  and  _118
REMARK   51  A    between atoms: _117  and  _120
REMARK   52  A    between atoms: _123  and  _125
REMARK   53  A    between atoms: _125  and  _126
REMARK   54  A    between atoms: _125  and  _128
REMARK   55  A    between atoms: _128  and  _129
REMARK   56  A    between atoms: _129  and  _130
REMARK   57  A    between atoms: _130  and  _131
REMARK   58  A    between atoms: _131  and  _132
REMARK   59  A    between atoms: _136  and  _138
REMARK   60  A    between atoms: _138  and  _139
REMARK   61  A    between atoms: _138  and  _141
REMARK   62  A    between atoms: _141  and  _142
REMARK   63  A    between atoms: _142  and  _143
REMARK   64  A    between atoms: _145  and  _147
REMARK   65  A    between atoms: _147  and  _148
REMARK   66  A    between atoms: _147  and  _150
REMARK   67  A    between atoms: _150  and  _151
REMARK   68  A    between atoms: _154  and  _156
REMARK   69  A    between atoms: _156  and  _157
REMARK   70  A    between atoms: _156  and  _159
REMARK   71  A    between atoms: _159  and  _160
REMARK   72  A    between atoms: _162  and  _164
REMARK   73  A    between atoms: _164  and  _165
REMARK   74  A    between atoms: _164  and  _167
REMARK   75  A    between atoms: _167  and  _168
REMARK   76  A    between atoms: _168  and  _169
REMARK   77  A    between atoms: _172  and  _174
REMARK   78  A    between atoms: _174  and  _175
REMARK   79  A    between atoms: _174  and  _177
REMARK   80  A    between atoms: _177  and  _178
REMARK   81  A    between atoms: _181  and  _183
REMARK   82  A    between atoms: _183  and  _184
REMARK   83  A    between atoms: _183  and  _186
REMARK   84  A    between atoms: _186  and  _187
REMARK   85  A    between atoms: _190  and  _192
REMARK   86  A    between atoms: _192  and  _193
REMARK   87  A    between atoms: _192  and  _195
REMARK   88  A    between atoms: _195  and  _196
REMARK   89  A    between atoms: _199  and  _201
REMARK   90  A    between atoms: _201  and  _202
REMARK   91  A    between atoms: _201  and  _204
REMARK   92  A    between atoms: _204  and  _205
REMARK   93  A    between atoms: _208  and  _210
REMARK   94  A    between atoms: _210  and  _211
REMARK   95  A    between atoms: _213  and  _215
REMARK   96  A    between atoms: _215  and  _216
REMARK   97  A    between atoms: _215  and  _218
REMARK   98  A    between atoms: _218  and  _219
REMARK   99  A    between atoms: _224  and  _226
REMARK  100  A    between atoms: _226  and  _227
REMARK  101  A    between atoms: _226  and  _229
REMARK  102  A    between atoms: _232  and  _234
REMARK  103  A    between atoms: _234  and  _235
REMARK  104  A    between atoms: _234  and  _237
REMARK  105  A    between atoms: _240  and  _242
REMARK  106  A    between atoms: _242  and  _243
REMARK  107  A    between atoms: _242  and  _245
REMARK  108  A    between atoms: _245  and  _246
REMARK  109  A    between atoms: _251  and  _253
REMARK  110  A    between atoms: _253  and  _254
REMARK  111  A    between atoms: _253  and  _256
REMARK  112  A    between atoms: _256  and  _257
REMARK  113  A    between atoms: _260  and  _262
REMARK  114  A    between atoms: _262  and  _263
REMARK  115  A    between atoms: _262  and  _265
REMARK  116  A    between atoms: _268  and  _270
REMARK  117  A    between atoms: _270  and  _271
REMARK  118  A    between atoms: _270  and  _273
REMARK  119  A    between atoms: _273  and  _274
REMARK  120  A    between atoms: _277  and  _279
REMARK  121  A    between atoms: _279  and  _280
REMARK  122  A    between atoms: _279  and  _282
REMARK  123  A    between atoms: _285  and  _287
REMARK  124  A    between atoms: _287  and  _288
REMARK  125  A    between atoms: _287  and  _290
REMARK  126  A    between atoms: _290  and  _291
REMARK  127  A    between atoms: _291  and  _292
REMARK  128  A    between atoms: _295  and  _297
REMARK  129  A    between atoms: _297  and  _298
REMARK  130  A    between atoms: _297  and  _300
REMARK  131  A    between atoms: _300  and  _301
REMARK  132  A    between atoms: _307  and  _309
REMARK  133  A    between atoms: _309  and  _310
REMARK  134  A    between atoms: _309  and  _312
REMARK  135  A    between atoms: _314  and  _316
REMARK  136  A    between atoms: _316  and  _317
REMARK  137  A    between atoms: _316  and  _319
REMARK  138  A    between atoms: _319  and  _320
REMARK  139  A    between atoms: _320  and  _321
REMARK  140  A    between atoms: _321  and  _322
REMARK  141  A    between atoms: _322  and  _323
REMARK  142  A    between atoms: _327  and  _329
REMARK  143  A    between atoms: _329  and  _330
REMARK  144  A    between atoms: _329  and  _332
REMARK  145  A    between atoms: _332  and  _333
REMARK  146  A    between atoms: _339  and  _341
REMARK  147  A    between atoms: _341  and  _342
REMARK  148  A    between atoms: _344  and  _346
REMARK  149  A    between atoms: _346  and  _347
REMARK  150  A    between atoms: _346  and  _349
REMARK  151  A    between atoms: _349  and  _350
REMARK  152  A    between atoms: _355  and  _357
REMARK  153  A    between atoms: _357  and  _358
REMARK  154  A    between atoms: _360  and  _362
REMARK  155  A    between atoms: _362  and  _363
REMARK  156  A    between atoms: _362  and  _365
REMARK  157  A    between atoms: _365  and  _366
REMARK  158  A    between atoms: _366  and  _367
REMARK  159  A    between atoms: _369  and  _371
REMARK  160  A    between atoms: _371  and  _372
REMARK  161  A    between atoms: _371  and  _374
REMARK  162  A    between atoms: _374  and  _375
REMARK  163  A    between atoms: _381  and  _383
REMARK  164  A    between atoms: _383  and  _384
REMARK  165  A    between atoms: _383  and  _386
REMARK  166  A    between atoms: _386  and  _387
REMARK  167  A    between atoms: _390  and  _392
REMARK  168  A    between atoms: _392  and  _393
REMARK  169  A    between atoms: _392  and  _395
REMARK  170  A    between atoms: _397  and  _399
REMARK  171  A    between atoms: _399  and  _400
REMARK  172  A    between atoms: _399  and  _402
REMARK  173  A    between atoms: _402  and  _403
REMARK  174  A    between atoms: _406  and  _408
REMARK  175  A    between atoms: _408  and  _409
REMARK  176  A    between atoms: _408  and  _411
REMARK  177  A    between atoms: _411  and  _412
REMARK  178  A    between atoms: _417  and  _419
REMARK  179  A    between atoms: _419  and  _420
REMARK  180  A    between atoms: _419  and  _422
REMARK  181  A    between atoms: _422  and  _423
REMARK  182  A    between atoms: _423  and  _424
REMARK  183  A    between atoms: _424  and  _425
REMARK  184  A    between atoms: _434  and  _436
REMARK  185  A    between atoms: _436  and  _437
REMARK  186  A    between atoms: _436  and  _439
REMARK  187  A    between atoms: _439  and  _440
REMARK  188  A    between atoms: _443  and  _445
REMARK  189  A    between atoms: _445  and  _446
REMARK  190  A    between atoms: _445  and  _448
REMARK  191  A    between atoms: _448  and  _449
REMARK  192  A    between atoms: _452  and  _454
REMARK  193  A    between atoms: _454  and  _455
REMARK  194  A    between atoms: _454  and  _457
REMARK  195  A    between atoms: _457  and  _458
REMARK  196  A    between atoms: _458  and  _459
REMARK  197  A    between atoms: _459  and  _460
REMARK  198  A    between atoms: _469  and  _471
REMARK  199  A    between atoms: _471  and  _472
REMARK  200  A    between atoms: _471  and  _474
REMARK  201  A    between atoms: _474  and  _475
REMARK  202  A    between atoms: _480  and  _482
REMARK  203  A    between atoms: _482  and  _483
REMARK  204  A    between atoms: _482  and  _485
REMARK  205  A    between atoms: _485  and  _486
REMARK  206  A    between atoms: _489  and  _491
REMARK  207  A    between atoms: _491  and  _492
REMARK  208  A    between atoms: _491  and  _494
REMARK  209  A    between atoms: _494  and  _495
REMARK  210  A    between atoms: _498  and  _500
REMARK  211  A    between atoms: _500  and  _501
REMARK  212  A    between atoms: _500  and  _503
REMARK  213  A    between atoms: _503  and  _504
REMARK  214  A    between atoms: _507  and  _509
REMARK  215  A    between atoms: _509  and  _510
REMARK  216  A    between atoms: _509  and  _512
REMARK  217  A    between atoms: _512  and  _513
REMARK  218  A    between atoms: _515  and  _517
REMARK  219  A    between atoms: _517  and  _518
REMARK  220  A    between atoms: _517  and  _520
REMARK  221  A    between atoms: _520  and  _521
REMARK  222  A    between atoms: _521  and  _522
REMARK  223  A    between atoms: _522  and  _523
REMARK  224  A    between atoms: _523  and  _524
REMARK  225  A    between atoms: _528  and  _530
REMARK  226  A    between atoms: _530  and  _531
REMARK  227  A    between atoms: _530  and  _533
REMARK  228  A    between atoms: _533  and  _534
REMARK  229  A    between atoms: _537  and  _539
REMARK  230  A    between atoms: _539  and  _540
REMARK  231  A    between atoms: _539  and  _542
REMARK  232  A    between atoms: _544  and  _546
REMARK  233  A    between atoms: _546  and  _547
REMARK  234  A    between atoms: _546  and  _549
REMARK  235  A    between atoms: _549  and  _550
REMARK  236  A    between atoms: _553  and  _555
REMARK  237  A    between atoms: _555  and  _556
REMARK  238  A    between atoms: _555  and  _558
REMARK  239  A    between atoms: _558  and  _559
REMARK  240  A    between atoms: _565  and  _567
REMARK  241  A    between atoms: _567  and  _568
REMARK  242  A    between atoms: _570  and  _572
REMARK  243  A    between atoms: _572  and  _573
REMARK  244  A    between atoms: _572  and  _575
REMARK  245  A    between atoms: _575  and  _576
REMARK  246  A    between atoms: _579  and  _581
REMARK  247  A    between atoms: _581  and  _582
REMARK  248  A    between atoms: _585  and  _587
REMARK  249  A    between atoms: _587  and  _588
REMARK  250  A    between atoms: _587  and  _590
REMARK  251  A    between atoms: _590  and  _591
REMARK  252  A    between atoms: _591  and  _592
REMARK  253  A    between atoms: _592  and  _593
REMARK                            x       y       z     vdW  Elec       q    Type
REMARK                         _______ _______ _______ _____ _____    ______ ____
ROOT
ATOM      1  CA  ARG A   4     -25.211  -7.964   0.565  0.00  0.00    +0.149 C 
ENDROOT
BRANCH   1   2
ATOM      2  C   ARG A   4     -23.835  -8.036  -0.100  0.00  0.00    +0.241 C 
ATOM      3  O   ARG A   4     -23.171  -9.065   0.003  0.00  0.00    -0.273 OA
ATOM      4  N   ASP A   5     -23.398  -6.988  -0.793  0.00  0.00    -0.297 N 
ATOM      5  H   ASP A   5     -24.021  -6.170  -0.951  0.00  0.00    +0.150 HD
BRANCH   4   6
ATOM      6  CA  ASP A   5     -22.022  -6.990  -1.339  0.00  0.00    +0.160 C 
BRANCH   6   7
ATOM      7  C   ASP A   5     -21.432  -5.581  -1.264  0.00  0.00    +0.241 C 
ATOM      8  N   LEU A   6     -21.603  -4.942  -0.107  0.00  0.00    -0.298 N 
ATOM      9  H   LEU A   6     -22.047  -5.432   0.696  0.00  0.00    +0.150 HD
ATOM     10  O   ASP A   5     -20.862  -5.073  -2.237  0.00  0.00    -0.273 OA
BRANCH   8  11
ATOM     11  CA  LEU A   6     -21.167  -3.552   0.037  0.00  0.00    +0.137 C 
BRANCH  11  12
ATOM     12  C   LEU A   6     -19.648  -3.546   0.178  0.00  0.00    +0.227 C 
ATOM     13  O   LEU A   6     -19.101  -4.285   1.000  0.00  0.00    -0.286 OA
ENDBRANCH  11  12
BRANCH  11  14
ATOM     14  CB  LEU A   6     -21.851  -2.865   1.225  0.00  0.00    +0.028 C 
BRANCH  14  15
ATOM     15  CG  LEU A   6     -21.619  -1.359   1.432  0.00  0.00    +0.002 C 
ATOM     16  CD2 LEU A   6     -22.388  -0.904   2.683  0.00  0.00    +0.000 C 
ATOM     17  CD1 LEU A   6     -22.033  -0.497   0.190  0.00  0.00    +0.000 C 
ENDBRANCH  14  15
ENDBRANCH  11  14
ENDBRANCH   8  11
ENDBRANCH   6   7
BRANCH   6  18
ATOM     18  CB  ASP A   5     -21.999  -7.539  -2.780  0.00  0.00    +0.143 C 
BRANCH  18  19
ATOM     19  CG  ASP A   5     -20.588  -7.925  -3.266  0.00  0.00    +0.367 C 
ATOM     20  OD2 ASP A   5     -19.599  -7.850  -2.502  0.00  0.00    -0.246 OA
ATOM     21  OD1 ASP A   5     -20.471  -8.315  -4.449  0.00  0.00    -0.246 OA
ENDBRANCH  18  19
ENDBRANCH   6  18
ENDBRANCH   4   6
ENDBRANCH   1   2
BRANCH   1  23
ATOM     22  C   HIS A   3     -26.528  -6.108  -0.416  0.00  0.00    +0.241 C 
ATOM     23  N   ARG A   4     -25.885  -6.648   0.619  0.00  0.00    -0.297 N 
ATOM     24  H   ARG A   4     -25.855  -6.116   1.512  0.00  0.00    +0.150 HD
ATOM     25  O   HIS A   3     -26.625  -6.656  -1.516  0.00  0.00    -0.273 OA
BRANCH  22  26
ATOM     26  CA  HIS A   3     -27.145  -4.726  -0.196  0.00  0.00    +0.155 C 
BRANCH  26  28
ATOM     27  C   ILE A   2     -29.403  -4.826   0.708  0.00  0.00    +0.241 C 
ATOM     28  N   HIS A   3     -28.097  -4.676   0.916  0.00  0.00    -0.297 N 
ATOM     29  H   HIS A   3     -27.747  -4.521   1.883  0.00  0.00    +0.150 HD
ATOM     30  O   ILE A   2     -29.886  -5.095  -0.399  0.00  0.00    -0.273 OA
BRANCH  27  31
ATOM     31  CA  ILE A   2     -30.325  -4.603   1.909  0.00  0.00    +0.148 C 
BRANCH  31  34
ATOM     32  C   CYS A   1     -32.459  -3.489   1.661  0.00  0.00    +0.239 C 
ATOM     33  O   CYS A   1     -32.172  -2.619   2.491  0.00  0.00    -0.274 OA
ATOM     34  N   ILE A   2     -31.693  -4.540   1.423  0.00  0.00    -0.297 N 
ATOM     35  H   ILE A   2     -32.077  -5.338   0.877  0.00  0.00    +0.150 HD
BRANCH  32  36
ATOM     36  CA  CYS A   1     -33.768  -3.436   0.904  0.00  0.00    +0.156 C 
BRANCH  36  37
ATOM     37  N   CYS A   1     -34.729  -2.676   1.672  0.00  0.00    -0.237 NA
ATOM     38  H   CYS A   1     -34.557  -1.663   1.830  0.00  0.00    +0.142 HD
ENDBRANCH  36  37
BRANCH  36  39
ATOM     39  CB  CYS A   1     -33.600  -2.817  -0.489  0.00  0.00    +0.095 C 
ATOM     40  SG  CYS A   1     -35.135  -2.946  -1.465  0.00  0.00    -0.080 S 
ENDBRANCH  36  39
ENDBRANCH  32  36
ENDBRANCH  31  34
BRANCH  31  41
ATOM     41  CB  ILE A   2     -30.118  -5.664   3.018  0.00  0.00    +0.027 C 
ATOM     42  CG2 ILE A   2     -31.075  -5.408   4.231  0.00  0.00    +0.002 C 
BRANCH  41  43
ATOM     43  CG1 ILE A   2     -30.268  -7.083   2.475  0.00  0.00    +0.002 C 
ATOM     44  CD1 ILE A   2     -29.742  -8.125   3.458  0.00  0.00    +0.000 C 
ENDBRANCH  41  43
ENDBRANCH  31  41
ENDBRANCH  27  31
ENDBRANCH  26  28
BRANCH  26  45
ATOM     45  CB  HIS A   3     -26.040  -3.683  -0.037  0.00  0.00    +0.076 C 
BRANCH  45  46
ATOM     46  CG  HIS A   3     -25.250  -3.469  -1.288  0.00  0.00    +0.082 A 
ATOM     47  ND1 HIS A   3     -24.356  -4.398  -1.777  0.00  0.00    -0.227 NA
ATOM     48  CE1 HIS A   3     -23.819  -3.942  -2.893  0.00  0.00    +0.199 A 
ATOM     49  NE2 HIS A   3     -24.346  -2.759  -3.156  0.00  0.00    -0.221 NA
ATOM     50  CD2 HIS A   3     -25.250  -2.446  -2.173  0.00  0.00    +0.115 A 
ENDBRANCH  45  46
ENDBRANCH  26  45
ENDBRANCH  22  26
ENDBRANCH   1  23
BRANCH   1  51
ATOM     51  CB  ARG A   4     -26.107  -9.059  -0.039  0.00  0.00    +0.033 C 
BRANCH  51  52
ATOM     52  CG  ARG A   4     -27.386  -9.330   0.723  0.00  0.00    +0.045 C 
BRANCH  52  53
ATOM     53  CD  ARG A   4     -28.162 -10.483   0.038  0.00  0.00    +0.174 C 
BRANCH  53  54
ATOM     54  NE  ARG A   4     -29.476 -10.676   0.646  0.00  0.00    -0.265 N 
ATOM     55  HE  ARG A   4     -29.555 -11.352   1.432  0.00  0.00    +0.259 HD
ATOM     56  CZ  ARG A   4     -30.576 -10.042   0.257  0.00  0.00    +0.342 C 
ATOM     57  NH2 ARG A   4     -31.726 -10.274   0.880  0.00  0.00    -0.292 N 
ATOM     58 HH21 ARG A   4     -31.763 -10.950   1.669  0.00  0.00    +0.255 HD
ATOM     59 HH22 ARG A   4     -32.590  -9.780   0.578  0.00  0.00    +0.255 HD
ATOM     60  NH1 ARG A   4     -30.533  -9.175  -0.757  0.00  0.00    -0.292 N 
ATOM     61 HH11 ARG A   4     -31.398  -8.682  -1.057  0.00  0.00    +0.255 HD
ATOM     62 HH12 ARG A   4     -29.634  -8.993  -1.247  0.00  0.00    +0.255 HD
ENDBRANCH  53  54
ENDBRANCH  52  53
ENDBRANCH  51  52
ENDBRANCH   1  51
TORSDOF 25
REMARK  Name = ../refined-set-2016/4asd/4asd_pocket.pdb
REMARK  253 active torsions:
REMARK  status: ('A' for Active; 'I' for Inactive)
REMARK    1  A    between atoms: _1  and  _3
REMARK    2  A    between atoms: _3  and  _4
REMARK    3  A    between atoms: _3  and  _6
REMARK    4  A    between atoms: _6  and  _7
REMARK    5  A    between atoms: _10  and  _12
REMARK    6  A    between atoms: _12  and  _13
REMARK    7  A    between atoms: _12  and  _15
REMARK    8  A    between atoms: _15  and  _16
REMARK    9  A    between atoms: _19  and  _21
REMARK   10  A    between atoms: _21  and  _22
REMARK   11  A    between atoms: _21  and  _24
REMARK   12  A    between atoms: _24  and  _25
REMARK   13  A    between atoms: _25  and  _26
REMARK   14  A    between atoms: _26  and  _27
REMARK   15  A    between atoms: _27  and  _28
REMARK   16  A    between atoms: _33  and  _34
REMARK   17  A    between atoms: _39  and  _41
REMARK   18  A    between atoms: _41  and  _42
REMARK   19  A    between atoms: _41  and  _44
REMARK   20  A    between atoms: _44  and  _45
REMARK   21  A    between atoms: _48  and  _50
REMARK   22  A    between atoms: _50  and  _51
REMARK   23  A    between atoms: _53  and  _55
REMARK   24  A    between atoms: _55  and  _56
REMARK   25  A    between atoms: _55  and  _58
REMARK   26  A    between atoms: _58  and  _59
REMARK   27  A    between atoms: _59  and  _60
REMARK   28  A    between atoms: _65  and  _67
REMARK   29  A    between atoms: _67  and  _68
REMARK   30  A    between atoms: _67  and  _70
REMARK   31  A    between atoms: _73  and  _75
REMARK   32  A    between atoms: _75  and  _76
REMARK   33  A    between atoms: _75  and  _78
REMARK   34  A    between atoms: _78  and  _79
REMARK   35  A    between atoms: _82  and  _84
REMARK   36  A    between atoms: _84  and  _85
REMARK   37  A    between atoms: _84  and  _87
REMARK   38  A    between atoms: _87  and  _88
REMARK   39  A    between atoms: _88  and  _89
REMARK   40  A    between atoms: _92  and  _94
REMARK   41  A    between atoms: _94  and  _95
REMARK   42  A    between atoms: _94  and  _97
REMARK   43  A    between atoms: _97  and  _98
REMARK   44  A    between atoms: _101  and  _103
REMARK   45  A    between atoms: _103  and  _104
REMARK   46  A    between atoms: _103  and  _106
REMARK   47  A    between atoms: _109  and  _111
REMARK   48  A    between atoms: _111  and  _112
REMARK   49  A    between atoms: _115  and  _117
REMARK   50  A    between atoms: _117  and  _118
REMARK   51  A    between atoms: _117  and  _120
REMARK   52  A    between atoms: _123  and  _125
REMARK   53  A    between atoms: _125  and  _126
REMARK   54  A    between atoms: _125  and  _128
REMARK   55  A    between atoms: _128  and  _129
REMARK   56  A    between atoms: _129  and  _130
REMARK   57  A    between atoms: _130  and  _131
REMARK   58  A    between atoms: _131  and  _132
REMARK   59  A    between atoms: _136  and  _138
REMARK   60  A    between atoms: _138  and  _139
REMARK   61  A    between atoms: _138  and  _141
REMARK   62  A    between atoms: _141  and  _142
REMARK   63  A    between atoms: _142  and  _143
REMARK   64  A    between atoms: _145  and  _147
REMARK   65  A    between atoms: _147  and  _148
REMARK   66  A    between atoms: _147  and  _150
REMARK   67  A    between atoms: _150  and  _151
REMARK   68  A    between atoms: _154  and  _156
REMARK   69  A    between atoms: _156  and  _157
REMARK   70  A    between atoms: _156  and  _159
REMARK   71  A    between atoms: _159  and  _160
REMARK   72  A    between atoms: _162  and  _164
REMARK   73  A    between atoms: _164  and  _165
REMARK   74  A    between atoms: _164  and  _167
REMARK   75  A    between atoms: _167  and  _168
REMARK   76  A    between atoms: _168  and  _169
REMARK   77  A    between atoms: _172  and  _174
REMARK   78  A    between atoms: _174  and  _175
REMARK   79  A    between atoms: _174  and  _177
REMARK   80  A    between atoms: _177  and  _178
REMARK   81  A    between atoms: _181  and  _183
REMARK   82  A    between atoms: _183  and  _184
REMARK   83  A    between atoms: _183  and  _186
REMARK   84  A    between atoms: _186  and  _187
REMARK   85  A    between atoms: _190  and  _192
REMARK   86  A    between atoms: _192  and  _193
REMARK   87  A    between atoms: _192  and  _195
REMARK   88  A    between atoms: _195  and  _196
REMARK   89  A    between atoms: _199  and  _201
REMARK   90  A    between atoms: _201  and  _202
REMARK   91  A    between atoms: _201  and  _204
REMARK   92  A    between atoms: _204  and  _205
REMARK   93  A    between atoms: _208  and  _210
REMARK   94  A    between atoms: _210  and  _211
REMARK   95  A    between atoms: _213  and  _215
REMARK   96  A    between atoms: _215  and  _216
REMARK   97  A    between atoms: _215  and  _218
REMARK   98  A    between atoms: _218  and  _219
REMARK   99  A    between atoms: _224  and  _226
REMARK  100  A    between atoms: _226  and  _227
REMARK  101  A    between atoms: _226  and  _229
REMARK  102  A    between atoms: _232  and  _234
REMARK  103  A    between atoms: _234  and  _235
REMARK  104  A    between atoms: _234  and  _237
REMARK  105  A    between atoms: _240  and  _242
REMARK  106  A    between atoms: _242  and  _243
REMARK  107  A    between atoms: _242  and  _245
REMARK  108  A    between atoms: _245  and  _246
REMARK  109  A    between atoms: _251  and  _253
REMARK  110  A    between atoms: _253  and  _254
REMARK  111  A    between atoms: _253  and  _256
REMARK  112  A    between atoms: _256  and  _257
REMARK  113  A    between atoms: _260  and  _262
REMARK  114  A    between atoms: _262  and  _263
REMARK  115  A    between atoms: _262  and  _265
REMARK  116  A    between atoms: _268  and  _270
REMARK  117  A    between atoms: _270  and  _271
REMARK  118  A    between atoms: _270  and  _273
REMARK  119  A    between atoms: _273  and  _274
REMARK  120  A    between atoms: _277  and  _279
REMARK  121  A    between atoms: _279  and  _280
REMARK  122  A    between atoms: _279  and  _282
REMARK  123  A    between atoms: _285  and  _287
REMARK  124  A    between atoms: _287  and  _288
REMARK  125  A    between atoms: _287  and  _290
REMARK  126  A    between atoms: _290  and  _291
REMARK  127  A    between atoms: _291  and  _292
REMARK  128  A    between atoms: _295  and  _297
REMARK  129  A    between atoms: _297  and  _298
REMARK  130  A    between atoms: _297  and  _300
REMARK  131  A    between atoms: _300  and  _301
REMARK  132  A    between atoms: _307  and  _309
REMARK  133  A    between atoms: _309  and  _310
REMARK  134  A    between atoms: _309  and  _312
REMARK  135  A    between atoms: _314  and  _316
REMARK  136  A    between atoms: _316  and  _317
REMARK  137  A    between atoms: _316  and  _319
REMARK  138  A    between atoms: _319  and  _320
REMARK  139  A    between atoms: _320  and  _321
REMARK  140  A    between atoms: _321  and  _322
REMARK  141  A    between atoms: _322  and  _323
REMARK  142  A    between atoms: _327  and  _329
REMARK  143  A    between atoms: _329  and  _330
REMARK  144  A    between atoms: _329  and  _332
REMARK  145  A    between atoms: _332  and  _333
REMARK  146  A    between atoms: _339  and  _341
REMARK  147  A    between atoms: _341  and  _342
REMARK  148  A    between atoms: _344  and  _346
REMARK  149  A    between atoms: _346  and  _347
REMARK  150  A    between atoms: _346  and  _349
REMARK  151  A    between atoms: _349  and  _350
REMARK  152  A    between atoms: _355  and  _357
REMARK  153  A    between atoms: _357  and  _358
REMARK  154  A    between atoms: _360  and  _362
REMARK  155  A    between atoms: _362  and  _363
REMARK  156  A    between atoms: _362  and  _365
REMARK  157  A    between atoms: _365  and  _366
REMARK  158  A    between atoms: _366  and  _367
REMARK  159  A    between atoms: _369  and  _371
REMARK  160  A    between atoms: _371  and  _372
REMARK  161  A    between atoms: _371  and  _374
REMARK  162  A    between atoms: _374  and  _375
REMARK  163  A    between atoms: _381  and  _383
REMARK  164  A    between atoms: _383  and  _384
REMARK  165  A    between atoms: _383  and  _386
REMARK  166  A    between atoms: _386  and  _387
REMARK  167  A    between atoms: _390  and  _392
REMARK  168  A    between atoms: _392  and  _393
REMARK  169  A    between atoms: _392  and  _395
REMARK  170  A    between atoms: _397  and  _399
REMARK  171  A    between atoms: _399  and  _400
REMARK  172  A    between atoms: _399  and  _402
REMARK  173  A    between atoms: _402  and  _403
REMARK  174  A    between atoms: _406  and  _408
REMARK  175  A    between atoms: _408  and  _409
REMARK  176  A    between atoms: _408  and  _411
REMARK  177  A    between atoms: _411  and  _412
REMARK  178  A    between atoms: _417  and  _419
REMARK  179  A    between atoms: _419  and  _420
REMARK  180  A    between atoms: _419  and  _422
REMARK  181  A    between atoms: _422  and  _423
REMARK  182  A    between atoms: _423  and  _424
REMARK  183  A    between atoms: _424  and  _425
REMARK  184  A    between atoms: _434  and  _436
REMARK  185  A    between atoms: _436  and  _437
REMARK  186  A    between atoms: _436  and  _439
REMARK  187  A    between atoms: _439  and  _440
REMARK  188  A    between atoms: _443  and  _445
REMARK  189  A    between atoms: _445  and  _446
REMARK  190  A    between atoms: _445  and  _448
REMARK  191  A    between atoms: _448  and  _449
REMARK  192  A    between atoms: _452  and  _454
REMARK  193  A    between atoms: _454  and  _455
REMARK  194  A    between atoms: _454  and  _457
REMARK  195  A    between atoms: _457  and  _458
REMARK  196  A    between atoms: _458  and  _459
REMARK  197  A    between atoms: _459  and  _460
REMARK  198  A    between atoms: _469  and  _471
REMARK  199  A    between atoms: _471  and  _472
REMARK  200  A    between atoms: _471  and  _474
REMARK  201  A    between atoms: _474  and  _475
REMARK  202  A    between atoms: _480  and  _482
REMARK  203  A    between atoms: _482  and  _483
REMARK  204  A    between atoms: _482  and  _485
REMARK  205  A    between atoms: _485  and  _486
REMARK  206  A    between atoms: _489  and  _491
REMARK  207  A    between atoms: _491  and  _492
REMARK  208  A    between atoms: _491  and  _494
REMARK  209  A    between atoms: _494  and  _495
REMARK  210  A    between atoms: _498  and  _500
REMARK  211  A    between atoms: _500  and  _501
REMARK  212  A    between atoms: _500  and  _503
REMARK  213  A    between atoms: _503  and  _504
REMARK  214  A    between atoms: _507  and  _509
REMARK  215  A    between atoms: _509  and  _510
REMARK  216  A    between atoms: _509  and  _512
REMARK  217  A    between atoms: _512  and  _513
REMARK  218  A    between atoms: _515  and  _517
REMARK  219  A    between atoms: _517  and  _518
REMARK  220  A    between atoms: _517  and  _520
REMARK  221  A    between atoms: _520  and  _521
REMARK  222  A    between atoms: _521  and  _522
REMARK  223  A    between atoms: _522  and  _523
REMARK  224  A    between atoms: _523  and  _524
REMARK  225  A    between atoms: _528  and  _530
REMARK  226  A    between atoms: _530  and  _531
REMARK  227  A    between atoms: _530  and  _533
REMARK  228  A    between atoms: _533  and  _534
REMARK  229  A    between atoms: _537  and  _539
REMARK  230  A    between atoms: _539  and  _540
REMARK  231  A    between atoms: _539  and  _542
REMARK  232  A    between atoms: _544  and  _546
REMARK  233  A    between atoms: _546  and  _547
REMARK  234  A    between atoms: _546  and  _549
REMARK  235  A    between atoms: _549  and  _550
REMARK  236  A    between atoms: _553  and  _555
REMARK  237  A    between atoms: _555  and  _556
REMARK  238  A    between atoms: _555  and  _558
REMARK  239  A    between atoms: _558  and  _559
REMARK  240  A    between atoms: _565  and  _567
REMARK  241  A    between atoms: _567  and  _568
REMARK  242  A    between atoms: _570  and  _572
REMARK  243  A    between atoms: _572  and  _573
REMARK  244  A    between atoms: _572  and  _575
REMARK  245  A    between atoms: _575  and  _576
REMARK  246  A    between atoms: _579  and  _581
REMARK  247  A    between atoms: _581  and  _582
REMARK  248  A    between atoms: _585  and  _587
REMARK  249  A    between atoms: _587  and  _588
REMARK  250  A    between atoms: _587  and  _590
REMARK  251  A    between atoms: _590  and  _591
REMARK  252  A    between atoms: _591  and  _592
REMARK  253  A    between atoms: _592  and  _593
REMARK                            x       y       z     vdW  Elec       q    Type
REMARK                         _______ _______ _______ _____ _____    ______ ____
ROOT
ATOM      1  CA  ILE A   3     -19.226   2.288  -5.168  0.00  0.00    +0.149 C 
ENDROOT
BRANCH   1   4
ATOM      2  C   ASN A   2     -19.857  -0.075  -5.308  0.00  0.00    +0.241 C 
ATOM      3  O   ASN A   2     -21.045   0.168  -5.089  0.00  0.00    -0.273 OA
ATOM      4  N   ILE A   3     -18.909   0.856  -5.241  0.00  0.00    -0.297 N 
ATOM      5  H   ILE A   3     -17.912   0.560  -5.240  0.00  0.00    +0.150 HD
BRANCH   2   6
ATOM      6  CA  ASN A   2     -19.392  -1.497  -5.665  0.00  0.00    +0.158 C 
BRANCH   6   8
ATOM      7  C   ARG A   1     -17.054  -1.828  -6.289  0.00  0.00    +0.238 C 
ATOM      8  N   ASN A   2     -17.985  -1.747  -5.336  0.00  0.00    -0.297 N 
ATOM      9  H   ASN A   2     -17.707  -1.863  -4.341  0.00  0.00    +0.150 HD
ATOM     10  O   ARG A   1     -17.321  -1.755  -7.489  0.00  0.00    -0.274 OA
BRANCH   7  11
ATOM     11  CA  ARG A   1     -15.595  -1.991  -5.807  0.00  0.00    +0.145 C 
BRANCH  11  12
ATOM     12  N   ARG A   1     -15.425  -1.535  -4.416  0.00  0.00    -0.238 NA
ATOM     13  H   ARG A   1     -15.166  -2.235  -3.692  0.00  0.00    +0.142 HD
ENDBRANCH  11  12
BRANCH  11  14
ATOM     14  CB  ARG A   1     -15.158  -3.448  -5.946  0.00  0.00    +0.030 C 
BRANCH  14  15
ATOM     15  CG  ARG A   1     -16.041  -4.445  -5.191  0.00  0.00    +0.045 C 
BRANCH  15  16
ATOM     16  CD  ARG A   1     -15.562  -5.910  -5.353  0.00  0.00    +0.174 C 
BRANCH  16  17
ATOM     17  NE  ARG A   1     -16.294  -6.734  -4.390  0.00  0.00    -0.265 N 
ATOM     18  CZ  ARG A   1     -15.946  -6.906  -3.118  0.00  0.00    +0.342 C 
ATOM     19  NH2 ARG A   1     -16.717  -7.635  -2.321  0.00  0.00    -0.292 N 
ATOM     20 HH21 ARG A   1     -16.451  -7.774  -1.325  0.00  0.00    +0.255 HD
ATOM     21 HH22 ARG A   1     -17.587  -8.067  -2.692  0.00  0.00    +0.255 HD
ATOM     22  NH1 ARG A   1     -14.828  -6.371  -2.633  0.00  0.00    -0.292 N 
ATOM     23 HH11 ARG A   1     -14.572  -6.516  -1.635  0.00  0.00    +0.255 HD
ATOM     24 HH12 ARG A   1     -14.210  -5.808  -3.252  0.00  0.00    +0.255 HD
ATOM     25  HE  ARG A   1     -17.150  -7.221  -4.725  0.00  0.00    +0.259 HD
ENDBRANCH  16  17
ENDBRANCH  15  16
ENDBRANCH  14  15
ENDBRANCH  11  14
ENDBRANCH   7  11
ENDBRANCH   6   8
BRANCH   6  26
ATOM     26  CB  ASN A   2     -20.271  -2.550  -4.991  0.00  0.00    +0.114 C 
BRANCH  26  27
ATOM     27  CG  ASN A   2     -20.317  -3.854  -5.762  0.00  0.00    +0.222 C 
ATOM     28  ND2 ASN A   2     -20.393  -4.973  -5.043  0.00  0.00    -0.329 N 
ATOM     29 HD21 ASN A   2     -20.377  -4.926  -4.004  0.00  0.00    +0.145 HD
ATOM     30 HD22 ASN A   2     -20.469  -5.894  -5.521  0.00  0.00    +0.145 HD
ATOM     31  OD1 ASN A   2     -20.332  -3.856  -6.984  0.00  0.00    -0.275 OA
ENDBRANCH  26  27
ENDBRANCH   6  26
ENDBRANCH   2   6
ENDBRANCH   1   4
BRANCH   1  32
ATOM     32  C   ILE A   3     -18.678   2.950  -6.429  0.00  0.00    +0.241 C 
ATOM     33  O   ILE A   3     -17.515   2.730  -6.799  0.00  0.00    -0.273 OA
ATOM     34  N   LEU A   4     -19.529   3.722  -7.106  0.00  0.00    -0.297 N 
ATOM     35  H   LEU A   4     -20.510   3.813  -6.772  0.00  0.00    +0.150 HD
BRANCH  34  36
ATOM     36  CA  LEU A   4     -19.115   4.441  -8.304  0.00  0.00    +0.149 C 
BRANCH  36  37
ATOM     37  C   LEU A   4     -18.928   5.921  -7.995  0.00  0.00    +0.241 C 
ATOM     38  O   LEU A   4     -19.647   6.495  -7.167  0.00  0.00    -0.273 OA
ATOM     39  N   LEU A   5     -17.959   6.522  -8.666  0.00  0.00    -0.297 N 
ATOM     40  H   LEU A   5     -17.373   5.959  -9.315  0.00  0.00    +0.150 HD
BRANCH  39  41
ATOM     41  CA  LEU A   5     -17.688   7.936  -8.527  0.00  0.00    +0.149 C 
BRANCH  41  42
ATOM     42  C   LEU A   5     -18.095   8.686  -9.786  0.00  0.00    +0.241 C 
ATOM     43  N   SER A   6     -18.956   9.677  -9.596  0.00  0.00    -0.296 N 
ATOM     44  H   SER A   6     -19.318   9.846  -8.636  0.00  0.00    +0.150 HD
ATOM     45  O   LEU A   5     -17.650   8.381 -10.888  0.00  0.00    -0.273 OA
BRANCH  43  46
ATOM     46  CA  SER A   6     -19.414  10.536 -10.673  0.00  0.00    +0.166 C 
BRANCH  46  47
ATOM     47  C   SER A   6     -18.698  11.878 -10.651  0.00  0.00    +0.229 C 
ATOM     48  O   SER A   6     -17.760  12.088  -9.868  0.00  0.00    -0.286 OA
ENDBRANCH  46  47
BRANCH  46  49
ATOM     49  CB  SER A   6     -20.912  10.779 -10.532  0.00  0.00    +0.165 C 
BRANCH  49  50
ATOM     50  OG  SER A   6     -21.611   9.704 -11.084  0.00  0.00    -0.380 OA
ATOM     51  H   SER A   6     -22.584   9.862 -10.992  0.00  0.00    +0.211 HD
ENDBRANCH  49  50
ENDBRANCH  46  49
ENDBRANCH  43  46
ENDBRANCH  41  42
BRANCH  41  52
ATOM     52  CB  LEU A   5     -16.214   8.185  -8.180  0.00  0.00    +0.029 C 
BRANCH  52  53
ATOM     53  CG  LEU A   5     -15.787   9.662  -8.096  0.00  0.00    +0.002 C 
ATOM     54  CD2 LEU A   5     -16.569  10.417  -7.013  0.00  0.00    +0.000 C 
ATOM     55  CD1 LEU A   5     -14.277   9.806  -7.848  0.00  0.00    +0.000 C 
ENDBRANCH  52  53
ENDBRANCH  41  52
ENDBRANCH  39  41
ENDBRANCH  36  37
BRANCH  36  56
ATOM     56  CB  LEU A   4     -20.140   4.285  -9.434  0.00  0.00    +0.029 C 
BRANCH  56  57
ATOM     57  CG  LEU A   4     -20.419   2.856  -9.930  0.00  0.00    +0.002 C 
ATOM     58  CD2 LEU A   4     -21.770   2.798 -10.634  0.00  0.00    +0.000 C 
ATOM     59  CD1 LEU A   4     -19.310   2.323 -10.816  0.00  0.00    +0.000 C 
ENDBRANCH  56  57
ENDBRANCH  36  56
ENDBRANCH  34  36
ENDBRANCH   1  32
BRANCH   1  60
ATOM     60  CB  ILE A   3     -18.630   2.970  -3.901  0.00  0.00    +0.027 C 
ATOM     61  CG2 ILE A   3     -18.978   4.489  -3.865  0.00  0.00    +0.002 C 
BRANCH  60  62
ATOM     62  CG1 ILE A   3     -19.048   2.230  -2.614  0.00  0.00    +0.002 C 
ATOM     63  CD1 ILE A   3     -20.599   2.253  -2.292  0.00  0.00    +0.000 C 
ENDBRANCH  60  62
ENDBRANCH   1  60
TORSDOF 26
REMARK  Name = ../refined-set-2016/4asd/4asd_pocket.pdb
REMARK  253 active torsions:
REMARK  status: ('A' for Active; 'I' for Inactive)
REMARK    1  A    between atoms: _1  and  _3
REMARK    2  A    between atoms: _3  and  _4
REMARK    3  A    between atoms: _3  and  _6
REMARK    4  A    between atoms: _6  and  _7
REMARK    5  A    between atoms: _10  and  _12
REMARK    6  A    between atoms: _12  and  _13
REMARK    7  A    between atoms: _12  and  _15
REMARK    8  A    between atoms: _15  and  _16
REMARK    9  A    between atoms: _19  and  _21
REMARK   10  A    between atoms: _21  and  _22
REMARK   11  A    between atoms: _21  and  _24
REMARK   12  A    between atoms: _24  and  _25
REMARK   13  A    between atoms: _25  and  _26
REMARK   14  A    between atoms: _26  and  _27
REMARK   15  A    between atoms: _27  and  _28
REMARK   16  A    between atoms: _33  and  _34
REMARK   17  A    between atoms: _39  and  _41
REMARK   18  A    between atoms: _41  and  _42
REMARK   19  A    between atoms: _41  and  _44
REMARK   20  A    between atoms: _44  and  _45
REMARK   21  A    between atoms: _48  and  _50
REMARK   22  A    between atoms: _50  and  _51
REMARK   23  A    between atoms: _53  and  _55
REMARK   24  A    between atoms: _55  and  _56
REMARK   25  A    between atoms: _55  and  _58
REMARK   26  A    between atoms: _58  and  _59
REMARK   27  A    between atoms: _59  and  _60
REMARK   28  A    between atoms: _65  and  _67
REMARK   29  A    between atoms: _67  and  _68
REMARK   30  A    between atoms: _67  and  _70
REMARK   31  A    between atoms: _73  and  _75
REMARK   32  A    between atoms: _75  and  _76
REMARK   33  A    between atoms: _75  and  _78
REMARK   34  A    between atoms: _78  and  _79
REMARK   35  A    between atoms: _82  and  _84
REMARK   36  A    between atoms: _84  and  _85
REMARK   37  A    between atoms: _84  and  _87
REMARK   38  A    between atoms: _87  and  _88
REMARK   39  A    between atoms: _88  and  _89
REMARK   40  A    between atoms: _92  and  _94
REMARK   41  A    between atoms: _94  and  _95
REMARK   42  A    between atoms: _94  and  _97
REMARK   43  A    between atoms: _97  and  _98
REMARK   44  A    between atoms: _101  and  _103
REMARK   45  A    between atoms: _103  and  _104
REMARK   46  A    between atoms: _103  and  _106
REMARK   47  A    between atoms: _109  and  _111
REMARK   48  A    between atoms: _111  and  _112
REMARK   49  A    between atoms: _115  and  _117
REMARK   50  A    between atoms: _117  and  _118
REMARK   51  A    between atoms: _117  and  _120
REMARK   52  A    between atoms: _123  and  _125
REMARK   53  A    between atoms: _125  and  _126
REMARK   54  A    between atoms: _125  and  _128
REMARK   55  A    between atoms: _128  and  _129
REMARK   56  A    between atoms: _129  and  _130
REMARK   57  A    between atoms: _130  and  _131
REMARK   58  A    between atoms: _131  and  _132
REMARK   59  A    between atoms: _136  and  _138
REMARK   60  A    between atoms: _138  and  _139
REMARK   61  A    between atoms: _138  and  _141
REMARK   62  A    between atoms: _141  and  _142
REMARK   63  A    between atoms: _142  and  _143
REMARK   64  A    between atoms: _145  and  _147
REMARK   65  A    between atoms: _147  and  _148
REMARK   66  A    between atoms: _147  and  _150
REMARK   67  A    between atoms: _150  and  _151
REMARK   68  A    between atoms: _154  and  _156
REMARK   69  A    between atoms: _156  and  _157
REMARK   70  A    between atoms: _156  and  _159
REMARK   71  A    between atoms: _159  and  _160
REMARK   72  A    between atoms: _162  and  _164
REMARK   73  A    between atoms: _164  and  _165
REMARK   74  A    between atoms: _164  and  _167
REMARK   75  A    between atoms: _167  and  _168
REMARK   76  A    between atoms: _168  and  _169
REMARK   77  A    between atoms: _172  and  _174
REMARK   78  A    between atoms: _174  and  _175
REMARK   79  A    between atoms: _174  and  _177
REMARK   80  A    between atoms: _177  and  _178
REMARK   81  A    between atoms: _181  and  _183
REMARK   82  A    between atoms: _183  and  _184
REMARK   83  A    between atoms: _183  and  _186
REMARK   84  A    between atoms: _186  and  _187
REMARK   85  A    between atoms: _190  and  _192
REMARK   86  A    between atoms: _192  and  _193
REMARK   87  A    between atoms: _192  and  _195
REMARK   88  A    between atoms: _195  and  _196
REMARK   89  A    between atoms: _199  and  _201
REMARK   90  A    between atoms: _201  and  _202
REMARK   91  A    between atoms: _201  and  _204
REMARK   92  A    between atoms: _204  and  _205
REMARK   93  A    between atoms: _208  and  _210
REMARK   94  A    between atoms: _210  and  _211
REMARK   95  A    between atoms: _213  and  _215
REMARK   96  A    between atoms: _215  and  _216
REMARK   97  A    between atoms: _215  and  _218
REMARK   98  A    between atoms: _218  and  _219
REMARK   99  A    between atoms: _224  and  _226
REMARK  100  A    between atoms: _226  and  _227
REMARK  101  A    between atoms: _226  and  _229
REMARK  102  A    between atoms: _232  and  _234
REMARK  103  A    between atoms: _234  and  _235
REMARK  104  A    between atoms: _234  and  _237
REMARK  105  A    between atoms: _240  and  _242
REMARK  106  A    between atoms: _242  and  _243
REMARK  107  A    between atoms: _242  and  _245
REMARK  108  A    between atoms: _245  and  _246
REMARK  109  A    between atoms: _251  and  _253
REMARK  110  A    between atoms: _253  and  _254
REMARK  111  A    between atoms: _253  and  _256
REMARK  112  A    between atoms: _256  and  _257
REMARK  113  A    between atoms: _260  and  _262
REMARK  114  A    between atoms: _262  and  _263
REMARK  115  A    between atoms: _262  and  _265
REMARK  116  A    between atoms: _268  and  _270
REMARK  117  A    between atoms: _270  and  _271
REMARK  118  A    between atoms: _270  and  _273
REMARK  119  A    between atoms: _273  and  _274
REMARK  120  A    between atoms: _277  and  _279
REMARK  121  A    between atoms: _279  and  _280
REMARK  122  A    between atoms: _279  and  _282
REMARK  123  A    between atoms: _285  and  _287
REMARK  124  A    between atoms: _287  and  _288
REMARK  125  A    between atoms: _287  and  _290
REMARK  126  A    between atoms: _290  and  _291
REMARK  127  A    between atoms: _291  and  _292
REMARK  128  A    between atoms: _295  and  _297
REMARK  129  A    between atoms: _297  and  _298
REMARK  130  A    between atoms: _297  and  _300
REMARK  131  A    between atoms: _300  and  _301
REMARK  132  A    between atoms: _307  and  _309
REMARK  133  A    between atoms: _309  and  _310
REMARK  134  A    between atoms: _309  and  _312
REMARK  135  A    between atoms: _314  and  _316
REMARK  136  A    between atoms: _316  and  _317
REMARK  137  A    between atoms: _316  and  _319
REMARK  138  A    between atoms: _319  and  _320
REMARK  139  A    between atoms: _320  and  _321
REMARK  140  A    between atoms: _321  and  _322
REMARK  141  A    between atoms: _322  and  _323
REMARK  142  A    between atoms: _327  and  _329
REMARK  143  A    between atoms: _329  and  _330
REMARK  144  A    between atoms: _329  and  _332
REMARK  145  A    between atoms: _332  and  _333
REMARK  146  A    between atoms: _339  and  _341
REMARK  147  A    between atoms: _341  and  _342
REMARK  148  A    between atoms: _344  and  _346
REMARK  149  A    between atoms: _346  and  _347
REMARK  150  A    between atoms: _346  and  _349
REMARK  151  A    between atoms: _349  and  _350
REMARK  152  A    between atoms: _355  and  _357
REMARK  153  A    between atoms: _357  and  _358
REMARK  154  A    between atoms: _360  and  _362
REMARK  155  A    between atoms: _362  and  _363
REMARK  156  A    between atoms: _362  and  _365
REMARK  157  A    between atoms: _365  and  _366
REMARK  158  A    between atoms: _366  and  _367
REMARK  159  A    between atoms: _369  and  _371
REMARK  160  A    between atoms: _371  and  _372
REMARK  161  A    between atoms: _371  and  _374
REMARK  162  A    between atoms: _374  and  _375
REMARK  163  A    between atoms: _381  and  _383
REMARK  164  A    between atoms: _383  and  _384
REMARK  165  A    between atoms: _383  and  _386
REMARK  166  A    between atoms: _386  and  _387
REMARK  167  A    between atoms: _390  and  _392
REMARK  168  A    between atoms: _392  and  _393
REMARK  169  A    between atoms: _392  and  _395
REMARK  170  A    between atoms: _397  and  _399
REMARK  171  A    between atoms: _399  and  _400
REMARK  172  A    between atoms: _399  and  _402
REMARK  173  A    between atoms: _402  and  _403
REMARK  174  A    between atoms: _406  and  _408
REMARK  175  A    between atoms: _408  and  _409
REMARK  176  A    between atoms: _408  and  _411
REMARK  177  A    between atoms: _411  and  _412
REMARK  178  A    between atoms: _417  and  _419
REMARK  179  A    between atoms: _419  and  _420
REMARK  180  A    between atoms: _419  and  _422
REMARK  181  A    between atoms: _422  and  _423
REMARK  182  A    between atoms: _423  and  _424
REMARK  183  A    between atoms: _424  and  _425
REMARK  184  A    between atoms: _434  and  _436
REMARK  185  A    between atoms: _436  and  _437
REMARK  186  A    between atoms: _436  and  _439
REMARK  187  A    between atoms: _439  and  _440
REMARK  188  A    between atoms: _443  and  _445
REMARK  189  A    between atoms: _445  and  _446
REMARK  190  A    between atoms: _445  and  _448
REMARK  191  A    between atoms: _448  and  _449
REMARK  192  A    between atoms: _452  and  _454
REMARK  193  A    between atoms: _454  and  _455
REMARK  194  A    between atoms: _454  and  _457
REMARK  195  A    between atoms: _457  and  _458
REMARK  196  A    between atoms: _458  and  _459
REMARK  197  A    between atoms: _459  and  _460
REMARK  198  A    between atoms: _469  and  _471
REMARK  199  A    between atoms: _471  and  _472
REMARK  200  A    between atoms: _471  and  _474
REMARK  201  A    between atoms: _474  and  _475
REMARK  202  A    between atoms: _480  and  _482
REMARK  203  A    between atoms: _482  and  _483
REMARK  204  A    between atoms: _482  and  _485
REMARK  205  A    between atoms: _485  and  _486
REMARK  206  A    between atoms: _489  and  _491
REMARK  207  A    between atoms: _491  and  _492
REMARK  208  A    between atoms: _491  and  _494
REMARK  209  A    between atoms: _494  and  _495
REMARK  210  A    between atoms: _498  and  _500
REMARK  211  A    between atoms: _500  and  _501
REMARK  212  A    between atoms: _500  and  _503
REMARK  213  A    between atoms: _503  and  _504
REMARK  214  A    between atoms: _507  and  _509
REMARK  215  A    between atoms: _509  and  _510
REMARK  216  A    between atoms: _509  and  _512
REMARK  217  A    between atoms: _512  and  _513
REMARK  218  A    between atoms: _515  and  _517
REMARK  219  A    between atoms: _517  and  _518
REMARK  220  A    between atoms: _517  and  _520
REMARK  221  A    between atoms: _520  and  _521
REMARK  222  A    between atoms: _521  and  _522
REMARK  223  A    between atoms: _522  and  _523
REMARK  224  A    between atoms: _523  and  _524
REMARK  225  A    between atoms: _528  and  _530
REMARK  226  A    between atoms: _530  and  _531
REMARK  227  A    between atoms: _530  and  _533
REMARK  228  A    between atoms: _533  and  _534
REMARK  229  A    between atoms: _537  and  _539
REMARK  230  A    between atoms: _539  and  _540
REMARK  231  A    between atoms: _539  and  _542
REMARK  232  A    between atoms: _544  and  _546
REMARK  233  A    between atoms: _546  and  _547
REMARK  234  A    between atoms: _546  and  _549
REMARK  235  A    between atoms: _549  and  _550
REMARK  236  A    between atoms: _553  and  _555
REMARK  237  A    between atoms: _555  and  _556
REMARK  238  A    between atoms: _555  and  _558
REMARK  239  A    between atoms: _558  and  _559
REMARK  240  A    between atoms: _565  and  _567
REMARK  241  A    between atoms: _567  and  _568
REMARK  242  A    between atoms: _570  and  _572
REMARK  243  A    between atoms: _572  and  _573
REMARK  244  A    between atoms: _572  and  _575
REMARK  245  A    between atoms: _575  and  _576
REMARK  246  A    between atoms: _579  and  _581
REMARK  247  A    between atoms: _581  and  _582
REMARK  248  A    between atoms: _585  and  _587
REMARK  249  A    between atoms: _587  and  _588
REMARK  250  A    between atoms: _587  and  _590
REMARK  251  A    between atoms: _590  and  _591
REMARK  252  A    between atoms: _591  and  _592
REMARK  253  A    between atoms: _592  and  _593
REMARK                            x       y       z     vdW  Elec       q    Type
REMARK                         _______ _______ _______ _____ _____    ______ ____
ROOT
ATOM      1  CA  PHE A   5     -22.135  -5.132 -10.484  0.00  0.00    +0.153 C 
ENDROOT
BRANCH   1   2
ATOM      2  C   PHE A   5     -22.722  -6.540 -10.695  0.00  0.00    +0.241 C 
ATOM      3  N   GLY A   6     -22.806  -7.324  -9.623  0.00  0.00    -0.295 N 
ATOM      4  H   GLY A   6     -22.401  -6.988  -8.726  0.00  0.00    +0.150 HD
ATOM      5  O   PHE A   5     -23.100  -6.886 -11.813  0.00  0.00    -0.273 OA
BRANCH   3   6
ATOM      6  CA  GLY A   6     -23.450  -8.650  -9.657  0.00  0.00    +0.176 C 
BRANCH   6   7
ATOM      7  C   GLY A   6     -22.849  -9.559 -10.716  0.00  0.00    +0.243 C 
ATOM      8  O   GLY A   6     -21.648  -9.814 -10.712  0.00  0.00    -0.273 OA
ATOM      9  N   LEU A   7     -23.693  -9.991 -11.648  0.00  0.00    -0.297 N 
ATOM     10  H   LEU A   7     -24.675  -9.650 -11.614  0.00  0.00    +0.150 HD
BRANCH   9  11
ATOM     11  CA  LEU A   7     -23.323 -10.915 -12.716  0.00  0.00    +0.149 C 
BRANCH  11  12
ATOM     12  C   LEU A   7     -22.279 -10.317 -13.682  0.00  0.00    +0.241 C 
ATOM     13  N   ALA A   8     -22.207  -8.986 -13.726  0.00  0.00    -0.297 N 
ATOM     14  H   ALA A   8     -22.857  -8.427 -13.138  0.00  0.00    +0.150 HD
ATOM     15  O   LEU A   7     -21.540 -11.051 -14.347  0.00  0.00    -0.273 OA
BRANCH  13  16
ATOM     16  CA  ALA A   8     -21.240  -8.287 -14.577  0.00  0.00    +0.149 C 
ATOM     17  CB  ALA A   8     -21.735  -6.892 -14.933  0.00  0.00    +0.031 C 
BRANCH  16  18
ATOM     18  C   ALA A   8     -19.829  -8.231 -13.980  0.00  0.00    +0.241 C 
ATOM     19  N   ARG A   9     -19.626  -8.885 -12.839  0.00  0.00    -0.298 N 
ATOM     20  H   ARG A   9     -20.438  -9.302 -12.341  0.00  0.00    +0.150 HD
ATOM     21  O   ALA A   8     -18.950  -7.585 -14.542  0.00  0.00    -0.273 OA
BRANCH  19  22
ATOM     22  CA  ARG A   9     -18.281  -9.032 -12.267  0.00  0.00    +0.137 C 
BRANCH  22  23
ATOM     23  C   ARG A   9     -17.889 -10.495 -12.352  0.00  0.00    +0.227 C 
ATOM     24  O   ARG A   9     -18.702 -11.378 -12.055  0.00  0.00    -0.286 OA
ENDBRANCH  22  23
BRANCH  22  25
ATOM     25  CB  ARG A   9     -18.222  -8.574 -10.804  0.00  0.00    +0.031 C 
BRANCH  25  26
ATOM     26  CG  ARG A   9     -16.834  -8.781 -10.166  0.00  0.00    +0.045 C 
BRANCH  26  27
ATOM     27  CD  ARG A   9     -16.783  -8.277  -8.744  0.00  0.00    +0.174 C 
BRANCH  27  28
ATOM     28  NE  ARG A   9     -16.838  -6.821  -8.672  0.00  0.00    -0.265 N 
ATOM     29  CZ  ARG A   9     -17.875  -6.120  -8.238  0.00  0.00    +0.342 C 
ATOM     30  NH2 ARG A   9     -18.997  -6.723  -7.832  0.00  0.00    -0.292 N 
ATOM     31 HH21 ARG A   9     -19.800  -6.155  -7.495  0.00  0.00    +0.255 HD
ATOM     32 HH22 ARG A   9     -19.067  -7.760  -7.853  0.00  0.00    +0.255 HD
ATOM     33  NH1 ARG A   9     -17.781  -4.799  -8.207  0.00  0.00    -0.292 N 
ATOM     34 HH11 ARG A   9     -18.583  -4.228  -7.870  0.00  0.00    +0.255 HD
ATOM     35 HH12 ARG A   9     -16.906  -4.332  -8.520  0.00  0.00    +0.255 HD
ATOM     36  HE  ARG A   9     -15.999  -6.293  -8.985  0.00  0.00    +0.259 HD
ENDBRANCH  27  28
ENDBRANCH  26  27
ENDBRANCH  25  26
ENDBRANCH  22  25
ENDBRANCH  19  22
ENDBRANCH  16  18
ENDBRANCH  13  16
ENDBRANCH  11  12
BRANCH  11  37
ATOM     37  CB  LEU A   7     -24.598 -11.345 -13.457  0.00  0.00    +0.029 C 
BRANCH  37  38
ATOM     38  CG  LEU A   7     -25.284 -12.710 -13.226  0.00  0.00    +0.002 C 
ATOM     39  CD2 LEU A   7     -25.041 -13.402 -11.880  0.00  0.00    +0.000 C 
ATOM     40  CD1 LEU A   7     -26.803 -12.674 -13.588  0.00  0.00    +0.000 C 
ENDBRANCH  37  38
ENDBRANCH  11  37
ENDBRANCH   9  11
ENDBRANCH   6   7
ENDBRANCH   3   6
ENDBRANCH   1   2
BRANCH   1  42
ATOM     41  C   ASP A   4     -23.751  -4.340  -8.848  0.00  0.00    +0.241 C 
ATOM     42  N   PHE A   5     -22.480  -4.560  -9.171  0.00  0.00    -0.297 N 
ATOM     43  H   PHE A   5     -21.726  -4.327  -8.494  0.00  0.00    +0.150 HD
ATOM     44  O   ASP A   4     -24.686  -4.539  -9.643  0.00  0.00    -0.273 OA
BRANCH  41  45
ATOM     45  CA  ASP A   4     -24.008  -3.813  -7.432  0.00  0.00    +0.160 C 
BRANCH  45  48
ATOM     46  C   CYS A   3     -24.015  -1.525  -6.652  0.00  0.00    +0.242 C 
ATOM     47  O   CYS A   3     -23.514  -1.832  -5.566  0.00  0.00    -0.273 OA
ATOM     48  N   ASP A   4     -24.389  -2.419  -7.548  0.00  0.00    -0.297 N 
ATOM     49  H   ASP A   4     -24.970  -2.117  -8.356  0.00  0.00    +0.150 HD
BRANCH  46  50
ATOM     50  CA  CYS A   3     -24.256  -0.069  -7.036  0.00  0.00    +0.160 C 
BRANCH  50  52
ATOM     51  C   ILE A   2     -24.422   1.907  -5.643  0.00  0.00    +0.241 C 
ATOM     52  N   CYS A   3     -23.780   0.792  -5.962  0.00  0.00    -0.296 N 
ATOM     53  H   CYS A   3     -22.922   0.528  -5.437  0.00  0.00    +0.150 HD
ATOM     54  O   ILE A   2     -25.368   2.347  -6.308  0.00  0.00    -0.273 OA
BRANCH  51  55
ATOM     55  CA  ILE A   2     -23.901   2.637  -4.405  0.00  0.00    +0.148 C 
BRANCH  55  57
ATOM     56  C   LYS A   1     -22.998   4.577  -5.541  0.00  0.00    +0.238 C 
ATOM     57  N   ILE A   2     -23.849   4.056  -4.667  0.00  0.00    -0.297 N 
ATOM     58  H   ILE A   2     -24.498   4.688  -4.156  0.00  0.00    +0.150 HD
ATOM     59  O   LYS A   1     -22.080   3.938  -6.056  0.00  0.00    -0.274 OA
BRANCH  56  60
ATOM     60  CA  LYS A   1     -23.218   6.049  -5.875  0.00  0.00    +0.145 C 
BRANCH  60  61
ATOM     61  N   LYS A   1     -21.985   6.798  -5.738  0.00  0.00    -0.238 NA
ATOM     62  H   LYS A   1     -21.126   6.436  -6.199  0.00  0.00    +0.142 HD
ENDBRANCH  60  61
BRANCH  60  63
ATOM     63  CB  LYS A   1     -23.766   6.222  -7.289  0.00  0.00    +0.026 C 
BRANCH  63  64
ATOM     64  CG  LYS A   1     -24.206   7.684  -7.518  0.00  0.00    -0.000 C 
BRANCH  64  65
ATOM     65  CD  LYS A   1     -24.504   8.009  -8.955  0.00  0.00    -0.024 C 
BRANCH  65  66
ATOM     66  CE  LYS A   1     -24.997   9.465  -9.091  0.00  0.00    -0.086 C 
BRANCH  66  67
ATOM     67  NZ  LYS A   1     -26.437   9.583  -8.704  0.00  0.00    +0.380 N 
ATOM     68  HZ1 LYS A   1     -26.555   9.282  -7.716  0.00  0.00    -0.089 HD
ATOM     69  HZ2 LYS A   1     -26.742  10.572  -8.805  0.00  0.00    -0.089 HD
ATOM     70  HZ3 LYS A   1     -27.012   8.977  -9.323  0.00  0.00    -0.089 HD
ENDBRANCH  66  67
ENDBRANCH  65  66
ENDBRANCH  64  65
ENDBRANCH  63  64
ENDBRANCH  60  63
ENDBRANCH  56  60
ENDBRANCH  55  57
BRANCH  55  71
ATOM     71  CB  ILE A   2     -24.793   2.325  -3.185  0.00  0.00    +0.027 C 
ATOM     72  CG2 ILE A   2     -24.932   0.804  -2.982  0.00  0.00    +0.002 C 
BRANCH  71  73
ATOM     73  CG1 ILE A   2     -24.220   2.988  -1.931  0.00  0.00    +0.002 C 
ATOM     74  CD1 ILE A   2     -25.270   3.235  -0.841  0.00  0.00    +0.000 C 
ENDBRANCH  71  73
ENDBRANCH  55  71
ENDBRANCH  51  55
ENDBRANCH  50  52
BRANCH  50  75
ATOM     75  CB  CYS A   3     -23.546   0.268  -8.362  0.00  0.00    +0.098 C 
ATOM     76  SG  CYS A   3     -21.809  -0.291  -8.445  0.00  0.00    -0.080 S 
ENDBRANCH  50  75
ENDBRANCH  46  50
ENDBRANCH  45  48
BRANCH  45  77
ATOM     77  CB  ASP A   4     -25.101  -4.607  -6.702  0.00  0.00    +0.143 C 
BRANCH  77  78
ATOM     78  CG  ASP A   4     -24.714  -6.056  -6.465  0.00  0.00    +0.367 C 
ATOM     79  OD2 ASP A   4     -23.766  -6.313  -5.702  0.00  0.00    -0.246 OA
ATOM     80  OD1 ASP A   4     -25.353  -6.948  -7.056  0.00  0.00    -0.246 OA
ENDBRANCH  77  78
ENDBRANCH  45  77
ENDBRANCH  41  45
ENDBRANCH   1  42
BRANCH   1  81
ATOM     81  CB  PHE A   5     -20.616  -5.115 -10.717  0.00  0.00    +0.055 C 
BRANCH  81  82
ATOM     82  CG  PHE A   5     -20.105  -3.791 -11.215  0.00  0.00    -0.020 A 
ATOM     83  CD2 PHE A   5     -19.751  -2.786 -10.318  0.00  0.00    -0.004 A 
ATOM     84  CE2 PHE A   5     -19.290  -1.548 -10.777  0.00  0.00    -0.000 A 
ATOM     85  CZ  PHE A   5     -19.176  -1.316 -12.136  0.00  0.00    -0.000 A 
ATOM     86  CE1 PHE A   5     -19.531  -2.327 -13.046  0.00  0.00    -0.000 A 
ATOM     87  CD1 PHE A   5     -19.989  -3.546 -12.581  0.00  0.00    -0.004 A 
ENDBRANCH  81  82
ENDBRANCH   1  81
TORSDOF 36
REMARK  Name = ../refined-set-2016/4asd/4asd_pocket.pdb
REMARK  253 active torsions:
REMARK  status: ('A' for Active; 'I' for Inactive)
REMARK    1  A    between atoms: _1  and  _3
REMARK    2  A    between atoms: _3  and  _4
REMARK    3  A    between atoms: _3  and  _6
REMARK    4  A    between atoms: _6  and  _7
REMARK    5  A    between atoms: _10  and  _12
REMARK    6  A    between atoms: _12  and  _13
REMARK    7  A    between atoms: _12  and  _15
REMARK    8  A    between atoms: _15  and  _16
REMARK    9  A    between atoms: _19  and  _21
REMARK   10  A    between atoms: _21  and  _22
REMARK   11  A    between atoms: _21  and  _24
REMARK   12  A    between atoms: _24  and  _25
REMARK   13  A    between atoms: _25  and  _26
REMARK   14  A    between atoms: _26  and  _27
REMARK   15  A    between atoms: _27  and  _28
REMARK   16  A    between atoms: _33  and  _34
REMARK   17  A    between atoms: _39  and  _41
REMARK   18  A    between atoms: _41  and  _42
REMARK   19  A    between atoms: _41  and  _44
REMARK   20  A    between atoms: _44  and  _45
REMARK   21  A    between atoms: _48  and  _50
REMARK   22  A    between atoms: _50  and  _51
REMARK   23  A    between atoms: _53  and  _55
REMARK   24  A    between atoms: _55  and  _56
REMARK   25  A    between atoms: _55  and  _58
REMARK   26  A    between atoms: _58  and  _59
REMARK   27  A    between atoms: _59  and  _60
REMARK   28  A    between atoms: _65  and  _67
REMARK   29  A    between atoms: _67  and  _68
REMARK   30  A    between atoms: _67  and  _70
REMARK   31  A    between atoms: _73  and  _75
REMARK   32  A    between atoms: _75  and  _76
REMARK   33  A    between atoms: _75  and  _78
REMARK   34  A    between atoms: _78  and  _79
REMARK   35  A    between atoms: _82  and  _84
REMARK   36  A    between atoms: _84  and  _85
REMARK   37  A    between atoms: _84  and  _87
REMARK   38  A    between atoms: _87  and  _88
REMARK   39  A    between atoms: _88  and  _89
REMARK   40  A    between atoms: _92  and  _94
REMARK   41  A    between atoms: _94  and  _95
REMARK   42  A    between atoms: _94  and  _97
REMARK   43  A    between atoms: _97  and  _98
REMARK   44  A    between atoms: _101  and  _103
REMARK   45  A    between atoms: _103  and  _104
REMARK   46  A    between atoms: _103  and  _106
REMARK   47  A    between atoms: _109  and  _111
REMARK   48  A    between atoms: _111  and  _112
REMARK   49  A    between atoms: _115  and  _117
REMARK   50  A    between atoms: _117  and  _118
REMARK   51  A    between atoms: _117  and  _120
REMARK   52  A    between atoms: _123  and  _125
REMARK   53  A    between atoms: _125  and  _126
REMARK   54  A    between atoms: _125  and  _128
REMARK   55  A    between atoms: _128  and  _129
REMARK   56  A    between atoms: _129  and  _130
REMARK   57  A    between atoms: _130  and  _131
REMARK   58  A    between atoms: _131  and  _132
REMARK   59  A    between atoms: _136  and  _138
REMARK   60  A    between atoms: _138  and  _139
REMARK   61  A    between atoms: _138  and  _141
REMARK   62  A    between atoms: _141  and  _142
REMARK   63  A    between atoms: _142  and  _143
REMARK   64  A    between atoms: _145  and  _147
REMARK   65  A    between atoms: _147  and  _148
REMARK   66  A    between atoms: _147  and  _150
REMARK   67  A    between atoms: _150  and  _151
REMARK   68  A    between atoms: _154  and  _156
REMARK   69  A    between atoms: _156  and  _157
REMARK   70  A    between atoms: _156  and  _159
REMARK   71  A    between atoms: _159  and  _160
REMARK   72  A    between atoms: _162  and  _164
REMARK   73  A    between atoms: _164  and  _165
REMARK   74  A    between atoms: _164  and  _167
REMARK   75  A    between atoms: _167  and  _168
REMARK   76  A    between atoms: _168  and  _169
REMARK   77  A    between atoms: _172  and  _174
REMARK   78  A    between atoms: _174  and  _175
REMARK   79  A    between atoms: _174  and  _177
REMARK   80  A    between atoms: _177  and  _178
REMARK   81  A    between atoms: _181  and  _183
REMARK   82  A    between atoms: _183  and  _184
REMARK   83  A    between atoms: _183  and  _186
REMARK   84  A    between atoms: _186  and  _187
REMARK   85  A    between atoms: _190  and  _192
REMARK   86  A    between atoms: _192  and  _193
REMARK   87  A    between atoms: _192  and  _195
REMARK   88  A    between atoms: _195  and  _196
REMARK   89  A    between atoms: _199  and  _201
REMARK   90  A    between atoms: _201  and  _202
REMARK   91  A    between atoms: _201  and  _204
REMARK   92  A    between atoms: _204  and  _205
REMARK   93  A    between atoms: _208  and  _210
REMARK   94  A    between atoms: _210  and  _211
REMARK   95  A    between atoms: _213  and  _215
REMARK   96  A    between atoms: _215  and  _216
REMARK   97  A    between atoms: _215  and  _218
REMARK   98  A    between atoms: _218  and  _219
REMARK   99  A    between atoms: _224  and  _226
REMARK  100  A    between atoms: _226  and  _227
REMARK  101  A    between atoms: _226  and  _229
REMARK  102  A    between atoms: _232  and  _234
REMARK  103  A    between atoms: _234  and  _235
REMARK  104  A    between atoms: _234  and  _237
REMARK  105  A    between atoms: _240  and  _242
REMARK  106  A    between atoms: _242  and  _243
REMARK  107  A    between atoms: _242  and  _245
REMARK  108  A    between atoms: _245  and  _246
REMARK  109  A    between atoms: _251  and  _253
REMARK  110  A    between atoms: _253  and  _254
REMARK  111  A    between atoms: _253  and  _256
REMARK  112  A    between atoms: _256  and  _257
REMARK  113  A    between atoms: _260  and  _262
REMARK  114  A    between atoms: _262  and  _263
REMARK  115  A    between atoms: _262  and  _265
REMARK  116  A    between atoms: _268  and  _270
REMARK  117  A    between atoms: _270  and  _271
REMARK  118  A    between atoms: _270  and  _273
REMARK  119  A    between atoms: _273  and  _274
REMARK  120  A    between atoms: _277  and  _279
REMARK  121  A    between atoms: _279  and  _280
REMARK  122  A    between atoms: _279  and  _282
REMARK  123  A    between atoms: _285  and  _287
REMARK  124  A    between atoms: _287  and  _288
REMARK  125  A    between atoms: _287  and  _290
REMARK  126  A    between atoms: _290  and  _291
REMARK  127  A    between atoms: _291  and  _292
REMARK  128  A    between atoms: _295  and  _297
REMARK  129  A    between atoms: _297  and  _298
REMARK  130  A    between atoms: _297  and  _300
REMARK  131  A    between atoms: _300  and  _301
REMARK  132  A    between atoms: _307  and  _309
REMARK  133  A    between atoms: _309  and  _310
REMARK  134  A    between atoms: _309  and  _312
REMARK  135  A    between atoms: _314  and  _316
REMARK  136  A    between atoms: _316  and  _317
REMARK  137  A    between atoms: _316  and  _319
REMARK  138  A    between atoms: _319  and  _320
REMARK  139  A    between atoms: _320  and  _321
REMARK  140  A    between atoms: _321  and  _322
REMARK  141  A    between atoms: _322  and  _323
REMARK  142  A    between atoms: _327  and  _329
REMARK  143  A    between atoms: _329  and  _330
REMARK  144  A    between atoms: _329  and  _332
REMARK  145  A    between atoms: _332  and  _333
REMARK  146  A    between atoms: _339  and  _341
REMARK  147  A    between atoms: _341  and  _342
REMARK  148  A    between atoms: _344  and  _346
REMARK  149  A    between atoms: _346  and  _347
REMARK  150  A    between atoms: _346  and  _349
REMARK  151  A    between atoms: _349  and  _350
REMARK  152  A    between atoms: _355  and  _357
REMARK  153  A    between atoms: _357  and  _358
REMARK  154  A    between atoms: _360  and  _362
REMARK  155  A    between atoms: _362  and  _363
REMARK  156  A    between atoms: _362  and  _365
REMARK  157  A    between atoms: _365  and  _366
REMARK  158  A    between atoms: _366  and  _367
REMARK  159  A    between atoms: _369  and  _371
REMARK  160  A    between atoms: _371  and  _372
REMARK  161  A    between atoms: _371  and  _374
REMARK  162  A    between atoms: _374  and  _375
REMARK  163  A    between atoms: _381  and  _383
REMARK  164  A    between atoms: _383  and  _384
REMARK  165  A    between atoms: _383  and  _386
REMARK  166  A    between atoms: _386  and  _387
REMARK  167  A    between atoms: _390  and  _392
REMARK  168  A    between atoms: _392  and  _393
REMARK  169  A    between atoms: _392  and  _395
REMARK  170  A    between atoms: _397  and  _399
REMARK  171  A    between atoms: _399  and  _400
REMARK  172  A    between atoms: _399  and  _402
REMARK  173  A    between atoms: _402  and  _403
REMARK  174  A    between atoms: _406  and  _408
REMARK  175  A    between atoms: _408  and  _409
REMARK  176  A    between atoms: _408  and  _411
REMARK  177  A    between atoms: _411  and  _412
REMARK  178  A    between atoms: _417  and  _419
REMARK  179  A    between atoms: _419  and  _420
REMARK  180  A    between atoms: _419  and  _422
REMARK  181  A    between atoms: _422  and  _423
REMARK  182  A    between atoms: _423  and  _424
REMARK  183  A    between atoms: _424  and  _425
REMARK  184  A    between atoms: _434  and  _436
REMARK  185  A    between atoms: _436  and  _437
REMARK  186  A    between atoms: _436  and  _439
REMARK  187  A    between atoms: _439  and  _440
REMARK  188  A    between atoms: _443  and  _445
REMARK  189  A    between atoms: _445  and  _446
REMARK  190  A    between atoms: _445  and  _448
REMARK  191  A    between atoms: _448  and  _449
REMARK  192  A    between atoms: _452  and  _454
REMARK  193  A    between atoms: _454  and  _455
REMARK  194  A    between atoms: _454  and  _457
REMARK  195  A    between atoms: _457  and  _458
REMARK  196  A    between atoms: _458  and  _459
REMARK  197  A    between atoms: _459  and  _460
REMARK  198  A    between atoms: _469  and  _471
REMARK  199  A    between atoms: _471  and  _472
REMARK  200  A    between atoms: _471  and  _474
REMARK  201  A    between atoms: _474  and  _475
REMARK  202  A    between atoms: _480  and  _482
REMARK  203  A    between atoms: _482  and  _483
REMARK  204  A    between atoms: _482  and  _485
REMARK  205  A    between atoms: _485  and  _486
REMARK  206  A    between atoms: _489  and  _491
REMARK  207  A    between atoms: _491  and  _492
REMARK  208  A    between atoms: _491  and  _494
REMARK  209  A    between atoms: _494  and  _495
REMARK  210  A    between atoms: _498  and  _500
REMARK  211  A    between atoms: _500  and  _501
REMARK  212  A    between atoms: _500  and  _503
REMARK  213  A    between atoms: _503  and  _504
REMARK  214  A    between atoms: _507  and  _509
REMARK  215  A    between atoms: _509  and  _510
REMARK  216  A    between atoms: _509  and  _512
REMARK  217  A    between atoms: _512  and  _513
REMARK  218  A    between atoms: _515  and  _517
REMARK  219  A    between atoms: _517  and  _518
REMARK  220  A    between atoms: _517  and  _520
REMARK  221  A    between atoms: _520  and  _521
REMARK  222  A    between atoms: _521  and  _522
REMARK  223  A    between atoms: _522  and  _523
REMARK  224  A    between atoms: _523  and  _524
REMARK  225  A    between atoms: _528  and  _530
REMARK  226  A    between atoms: _530  and  _531
REMARK  227  A    between atoms: _530  and  _533
REMARK  228  A    between atoms: _533  and  _534
REMARK  229  A    between atoms: _537  and  _539
REMARK  230  A    between atoms: _539  and  _540
REMARK  231  A    between atoms: _539  and  _542
REMARK  232  A    between atoms: _544  and  _546
REMARK  233  A    between atoms: _546  and  _547
REMARK  234  A    between atoms: _546  and  _549
REMARK  235  A    between atoms: _549  and  _550
REMARK  236  A    between atoms: _553  and  _555
REMARK  237  A    between atoms: _555  and  _556
REMARK  238  A    between atoms: _555  and  _558
REMARK  239  A    between atoms: _558  and  _559
REMARK  240  A    between atoms: _565  and  _567
REMARK  241  A    between atoms: _567  and  _568
REMARK  242  A    between atoms: _570  and  _572
REMARK  243  A    between atoms: _572  and  _573
REMARK  244  A    between atoms: _572  and  _575
REMARK  245  A    between atoms: _575  and  _576
REMARK  246  A    between atoms: _579  and  _581
REMARK  247  A    between atoms: _581  and  _582
REMARK  248  A    between atoms: _585  and  _587
REMARK  249  A    between atoms: _587  and  _588
REMARK  250  A    between atoms: _587  and  _590
REMARK  251  A    between atoms: _590  and  _591
REMARK  252  A    between atoms: _591  and  _592
REMARK  253  A    between atoms: _592  and  _593
REMARK                            x       y       z     vdW  Elec       q    Type
REMARK                         _______ _______ _______ _____ _____    ______ ____
ROOT
ATOM      1  O   HOH     1     -11.901   1.845 -12.982  0.00  0.00    +0.000 OA
ENDROOT
TORSDOF 0
REMARK  Name = ../refined-set-2016/4asd/4asd_pocket.pdb
REMARK  253 active torsions:
REMARK  status: ('A' for Active; 'I' for Inactive)
REMARK    1  A    between atoms: _1  and  _3
REMARK    2  A    between atoms: _3  and  _4
REMARK    3  A    between atoms: _3  and  _6
REMARK    4  A    between atoms: _6  and  _7
REMARK    5  A    between atoms: _10  and  _12
REMARK    6  A    between atoms: _12  and  _13
REMARK    7  A    between atoms: _12  and  _15
REMARK    8  A    between atoms: _15  and  _16
REMARK    9  A    between atoms: _19  and  _21
REMARK   10  A    between atoms: _21  and  _22
REMARK   11  A    between atoms: _21  and  _24
REMARK   12  A    between atoms: _24  and  _25
REMARK   13  A    between atoms: _25  and  _26
REMARK   14  A    between atoms: _26  and  _27
REMARK   15  A    between atoms: _27  and  _28
REMARK   16  A    between atoms: _33  and  _34
REMARK   17  A    between atoms: _39  and  _41
REMARK   18  A    between atoms: _41  and  _42
REMARK   19  A    between atoms: _41  and  _44
REMARK   20  A    between atoms: _44  and  _45
REMARK   21  A    between atoms: _48  and  _50
REMARK   22  A    between atoms: _50  and  _51
REMARK   23  A    between atoms: _53  and  _55
REMARK   24  A    between atoms: _55  and  _56
REMARK   25  A    between atoms: _55  and  _58
REMARK   26  A    between atoms: _58  and  _59
REMARK   27  A    between atoms: _59  and  _60
REMARK   28  A    between atoms: _65  and  _67
REMARK   29  A    between atoms: _67  and  _68
REMARK   30  A    between atoms: _67  and  _70
REMARK   31  A    between atoms: _73  and  _75
REMARK   32  A    between atoms: _75  and  _76
REMARK   33  A    between atoms: _75  and  _78
REMARK   34  A    between atoms: _78  and  _79
REMARK   35  A    between atoms: _82  and  _84
REMARK   36  A    between atoms: _84  and  _85
REMARK   37  A    between atoms: _84  and  _87
REMARK   38  A    between atoms: _87  and  _88
REMARK   39  A    between atoms: _88  and  _89
REMARK   40  A    between atoms: _92  and  _94
REMARK   41  A    between atoms: _94  and  _95
REMARK   42  A    between atoms: _94  and  _97
REMARK   43  A    between atoms: _97  and  _98
REMARK   44  A    between atoms: _101  and  _103
REMARK   45  A    between atoms: _103  and  _104
REMARK   46  A    between atoms: _103  and  _106
REMARK   47  A    between atoms: _109  and  _111
REMARK   48  A    between atoms: _111  and  _112
REMARK   49  A    between atoms: _115  and  _117
REMARK   50  A    between atoms: _117  and  _118
REMARK   51  A    between atoms: _117  and  _120
REMARK   52  A    between atoms: _123  and  _125
REMARK   53  A    between atoms: _125  and  _126
REMARK   54  A    between atoms: _125  and  _128
REMARK   55  A    between atoms: _128  and  _129
REMARK   56  A    between atoms: _129  and  _130
REMARK   57  A    between atoms: _130  and  _131
REMARK   58  A    between atoms: _131  and  _132
REMARK   59  A    between atoms: _136  and  _138
REMARK   60  A    between atoms: _138  and  _139
REMARK   61  A    between atoms: _138  and  _141
REMARK   62  A    between atoms: _141  and  _142
REMARK   63  A    between atoms: _142  and  _143
REMARK   64  A    between atoms: _145  and  _147
REMARK   65  A    between atoms: _147  and  _148
REMARK   66  A    between atoms: _147  and  _150
REMARK   67  A    between atoms: _150  and  _151
REMARK   68  A    between atoms: _154  and  _156
REMARK   69  A    between atoms: _156  and  _157
REMARK   70  A    between atoms: _156  and  _159
REMARK   71  A    between atoms: _159  and  _160
REMARK   72  A    between atoms: _162  and  _164
REMARK   73  A    between atoms: _164  and  _165
REMARK   74  A    between atoms: _164  and  _167
REMARK   75  A    between atoms: _167  and  _168
REMARK   76  A    between atoms: _168  and  _169
REMARK   77  A    between atoms: _172  and  _174
REMARK   78  A    between atoms: _174  and  _175
REMARK   79  A    between atoms: _174  and  _177
REMARK   80  A    between atoms: _177  and  _178
REMARK   81  A    between atoms: _181  and  _183
REMARK   82  A    between atoms: _183  and  _184
REMARK   83  A    between atoms: _183  and  _186
REMARK   84  A    between atoms: _186  and  _187
REMARK   85  A    between atoms: _190  and  _192
REMARK   86  A    between atoms: _192  and  _193
REMARK   87  A    between atoms: _192  and  _195
REMARK   88  A    between atoms: _195  and  _196
REMARK   89  A    between atoms: _199  and  _201
REMARK   90  A    between atoms: _201  and  _202
REMARK   91  A    between atoms: _201  and  _204
REMARK   92  A    between atoms: _204  and  _205
REMARK   93  A    between atoms: _208  and  _210
REMARK   94  A    between atoms: _210  and  _211
REMARK   95  A    between atoms: _213  and  _215
REMARK   96  A    between atoms: _215  and  _216
REMARK   97  A    between atoms: _215  and  _218
REMARK   98  A    between atoms: _218  and  _219
REMARK   99  A    between atoms: _224  and  _226
REMARK  100  A    between atoms: _226  and  _227
REMARK  101  A    between atoms: _226  and  _229
REMARK  102  A    between atoms: _232  and  _234
REMARK  103  A    between atoms: _234  and  _235
REMARK  104  A    between atoms: _234  and  _237
REMARK  105  A    between atoms: _240  and  _242
REMARK  106  A    between atoms: _242  and  _243
REMARK  107  A    between atoms: _242  and  _245
REMARK  108  A    between atoms: _245  and  _246
REMARK  109  A    between atoms: _251  and  _253
REMARK  110  A    between atoms: _253  and  _254
REMARK  111  A    between atoms: _253  and  _256
REMARK  112  A    between atoms: _256  and  _257
REMARK  113  A    between atoms: _260  and  _262
REMARK  114  A    between atoms: _262  and  _263
REMARK  115  A    between atoms: _262  and  _265
REMARK  116  A    between atoms: _268  and  _270
REMARK  117  A    between atoms: _270  and  _271
REMARK  118  A    between atoms: _270  and  _273
REMARK  119  A    between atoms: _273  and  _274
REMARK  120  A    between atoms: _277  and  _279
REMARK  121  A    between atoms: _279  and  _280
REMARK  122  A    between atoms: _279  and  _282
REMARK  123  A    between atoms: _285  and  _287
REMARK  124  A    between atoms: _287  and  _288
REMARK  125  A    between atoms: _287  and  _290
REMARK  126  A    between atoms: _290  and  _291
REMARK  127  A    between atoms: _291  and  _292
REMARK  128  A    between atoms: _295  and  _297
REMARK  129  A    between atoms: _297  and  _298
REMARK  130  A    between atoms: _297  and  _300
REMARK  131  A    between atoms: _300  and  _301
REMARK  132  A    between atoms: _307  and  _309
REMARK  133  A    between atoms: _309  and  _310
REMARK  134  A    between atoms: _309  and  _312
REMARK  135  A    between atoms: _314  and  _316
REMARK  136  A    between atoms: _316  and  _317
REMARK  137  A    between atoms: _316  and  _319
REMARK  138  A    between atoms: _319  and  _320
REMARK  139  A    between atoms: _320  and  _321
REMARK  140  A    between atoms: _321  and  _322
REMARK  141  A    between atoms: _322  and  _323
REMARK  142  A    between atoms: _327  and  _329
REMARK  143  A    between atoms: _329  and  _330
REMARK  144  A    between atoms: _329  and  _332
REMARK  145  A    between atoms: _332  and  _333
REMARK  146  A    between atoms: _339  and  _341
REMARK  147  A    between atoms: _341  and  _342
REMARK  148  A    between atoms: _344  and  _346
REMARK  149  A    between atoms: _346  and  _347
REMARK  150  A    between atoms: _346  and  _349
REMARK  151  A    between atoms: _349  and  _350
REMARK  152  A    between atoms: _355  and  _357
REMARK  153  A    between atoms: _357  and  _358
REMARK  154  A    between atoms: _360  and  _362
REMARK  155  A    between atoms: _362  and  _363
REMARK  156  A    between atoms: _362  and  _365
REMARK  157  A    between atoms: _365  and  _366
REMARK  158  A    between atoms: _366  and  _367
REMARK  159  A    between atoms: _369  and  _371
REMARK  160  A    between atoms: _371  and  _372
REMARK  161  A    between atoms: _371  and  _374
REMARK  162  A    between atoms: _374  and  _375
REMARK  163  A    between atoms: _381  and  _383
REMARK  164  A    between atoms: _383  and  _384
REMARK  165  A    between atoms: _383  and  _386
REMARK  166  A    between atoms: _386  and  _387
REMARK  167  A    between atoms: _390  and  _392
REMARK  168  A    between atoms: _392  and  _393
REMARK  169  A    between atoms: _392  and  _395
REMARK  170  A    between atoms: _397  and  _399
REMARK  171  A    between atoms: _399  and  _400
REMARK  172  A    between atoms: _399  and  _402
REMARK  173  A    between atoms: _402  and  _403
REMARK  174  A    between atoms: _406  and  _408
REMARK  175  A    between atoms: _408  and  _409
REMARK  176  A    between atoms: _408  and  _411
REMARK  177  A    between atoms: _411  and  _412
REMARK  178  A    between atoms: _417  and  _419
REMARK  179  A    between atoms: _419  and  _420
REMARK  180  A    between atoms: _419  and  _422
REMARK  181  A    between atoms: _422  and  _423
REMARK  182  A    between atoms: _423  and  _424
REMARK  183  A    between atoms: _424  and  _425
REMARK  184  A    between atoms: _434  and  _436
REMARK  185  A    between atoms: _436  and  _437
REMARK  186  A    between atoms: _436  and  _439
REMARK  187  A    between atoms: _439  and  _440
REMARK  188  A    between atoms: _443  and  _445
REMARK  189  A    between atoms: _445  and  _446
REMARK  190  A    between atoms: _445  and  _448
REMARK  191  A    between atoms: _448  and  _449
REMARK  192  A    between atoms: _452  and  _454
REMARK  193  A    between atoms: _454  and  _455
REMARK  194  A    between atoms: _454  and  _457
REMARK  195  A    between atoms: _457  and  _458
REMARK  196  A    between atoms: _458  and  _459
REMARK  197  A    between atoms: _459  and  _460
REMARK  198  A    between atoms: _469  and  _471
REMARK  199  A    between atoms: _471  and  _472
REMARK  200  A    between atoms: _471  and  _474
REMARK  201  A    between atoms: _474  and  _475
REMARK  202  A    between atoms: _480  and  _482
REMARK  203  A    between atoms: _482  and  _483
REMARK  204  A    between atoms: _482  and  _485
REMARK  205  A    between atoms: _485  and  _486
REMARK  206  A    between atoms: _489  and  _491
REMARK  207  A    between atoms: _491  and  _492
REMARK  208  A    between atoms: _491  and  _494
REMARK  209  A    between atoms: _494  and  _495
REMARK  210  A    between atoms: _498  and  _500
REMARK  211  A    between atoms: _500  and  _501
REMARK  212  A    between atoms: _500  and  _503
REMARK  213  A    between atoms: _503  and  _504
REMARK  214  A    between atoms: _507  and  _509
REMARK  215  A    between atoms: _509  and  _510
REMARK  216  A    between atoms: _509  and  _512
REMARK  217  A    between atoms: _512  and  _513
REMARK  218  A    between atoms: _515  and  _517
REMARK  219  A    between atoms: _517  and  _518
REMARK  220  A    between atoms: _517  and  _520
REMARK  221  A    between atoms: _520  and  _521
REMARK  222  A    between atoms: _521  and  _522
REMARK  223  A    between atoms: _522  and  _523
REMARK  224  A    between atoms: _523  and  _524
REMARK  225  A    between atoms: _528  and  _530
REMARK  226  A    between atoms: _530  and  _531
REMARK  227  A    between atoms: _530  and  _533
REMARK  228  A    between atoms: _533  and  _534
REMARK  229  A    between atoms: _537  and  _539
REMARK  230  A    between atoms: _539  and  _540
REMARK  231  A    between atoms: _539  and  _542
REMARK  232  A    between atoms: _544  and  _546
REMARK  233  A    between atoms: _546  and  _547
REMARK  234  A    between atoms: _546  and  _549
REMARK  235  A    between atoms: _549  and  _550
REMARK  236  A    between atoms: _553  and  _555
REMARK  237  A    between atoms: _555  and  _556
REMARK  238  A    between atoms: _555  and  _558
REMARK  239  A    between atoms: _558  and  _559
REMARK  240  A    between atoms: _565  and  _567
REMARK  241  A    between atoms: _567  and  _568
REMARK  242  A    between atoms: _570  and  _572
REMARK  243  A    between atoms: _572  and  _573
REMARK  244  A    between atoms: _572  and  _575
REMARK  245  A    between atoms: _575  and  _576
REMARK  246  A    between atoms: _579  and  _581
REMARK  247  A    between atoms: _581  and  _582
REMARK  248  A    between atoms: _585  and  _587
REMARK  249  A    between atoms: _587  and  _588
REMARK  250  A    between atoms: _587  and  _590
REMARK  251  A    between atoms: _590  and  _591
REMARK  252  A    between atoms: _591  and  _592
REMARK  253  A    between atoms: _592  and  _593
REMARK                            x       y       z     vdW  Elec       q    Type
REMARK                         _______ _______ _______ _____ _____    ______ ____
ROOT
ATOM      1  O   HOH     1     -11.949   9.863 -16.498  0.00  0.00    +0.000 OA
ENDROOT
TORSDOF 0
REMARK  Name = ../refined-set-2016/4asd/4asd_pocket.pdb
REMARK  253 active torsions:
REMARK  status: ('A' for Active; 'I' for Inactive)
REMARK    1  A    between atoms: _1  and  _3
REMARK    2  A    between atoms: _3  and  _4
REMARK    3  A    between atoms: _3  and  _6
REMARK    4  A    between atoms: _6  and  _7
REMARK    5  A    between atoms: _10  and  _12
REMARK    6  A    between atoms: _12  and  _13
REMARK    7  A    between atoms: _12  and  _15
REMARK    8  A    between atoms: _15  and  _16
REMARK    9  A    between atoms: _19  and  _21
REMARK   10  A    between atoms: _21  and  _22
REMARK   11  A    between atoms: _21  and  _24
REMARK   12  A    between atoms: _24  and  _25
REMARK   13  A    between atoms: _25  and  _26
REMARK   14  A    between atoms: _26  and  _27
REMARK   15  A    between atoms: _27  and  _28
REMARK   16  A    between atoms: _33  and  _34
REMARK   17  A    between atoms: _39  and  _41
REMARK   18  A    between atoms: _41  and  _42
REMARK   19  A    between atoms: _41  and  _44
REMARK   20  A    between atoms: _44  and  _45
REMARK   21  A    between atoms: _48  and  _50
REMARK   22  A    between atoms: _50  and  _51
REMARK   23  A    between atoms: _53  and  _55
REMARK   24  A    between atoms: _55  and  _56
REMARK   25  A    between atoms: _55  and  _58
REMARK   26  A    between atoms: _58  and  _59
REMARK   27  A    between atoms: _59  and  _60
REMARK   28  A    between atoms: _65  and  _67
REMARK   29  A    between atoms: _67  and  _68
REMARK   30  A    between atoms: _67  and  _70
REMARK   31  A    between atoms: _73  and  _75
REMARK   32  A    between atoms: _75  and  _76
REMARK   33  A    between atoms: _75  and  _78
REMARK   34  A    between atoms: _78  and  _79
REMARK   35  A    between atoms: _82  and  _84
REMARK   36  A    between atoms: _84  and  _85
REMARK   37  A    between atoms: _84  and  _87
REMARK   38  A    between atoms: _87  and  _88
REMARK   39  A    between atoms: _88  and  _89
REMARK   40  A    between atoms: _92  and  _94
REMARK   41  A    between atoms: _94  and  _95
REMARK   42  A    between atoms: _94  and  _97
REMARK   43  A    between atoms: _97  and  _98
REMARK   44  A    between atoms: _101  and  _103
REMARK   45  A    between atoms: _103  and  _104
REMARK   46  A    between atoms: _103  and  _106
REMARK   47  A    between atoms: _109  and  _111
REMARK   48  A    between atoms: _111  and  _112
REMARK   49  A    between atoms: _115  and  _117
REMARK   50  A    between atoms: _117  and  _118
REMARK   51  A    between atoms: _117  and  _120
REMARK   52  A    between atoms: _123  and  _125
REMARK   53  A    between atoms: _125  and  _126
REMARK   54  A    between atoms: _125  and  _128
REMARK   55  A    between atoms: _128  and  _129
REMARK   56  A    between atoms: _129  and  _130
REMARK   57  A    between atoms: _130  and  _131
REMARK   58  A    between atoms: _131  and  _132
REMARK   59  A    between atoms: _136  and  _138
REMARK   60  A    between atoms: _138  and  _139
REMARK   61  A    between atoms: _138  and  _141
REMARK   62  A    between atoms: _141  and  _142
REMARK   63  A    between atoms: _142  and  _143
REMARK   64  A    between atoms: _145  and  _147
REMARK   65  A    between atoms: _147  and  _148
REMARK   66  A    between atoms: _147  and  _150
REMARK   67  A    between atoms: _150  and  _151
REMARK   68  A    between atoms: _154  and  _156
REMARK   69  A    between atoms: _156  and  _157
REMARK   70  A    between atoms: _156  and  _159
REMARK   71  A    between atoms: _159  and  _160
REMARK   72  A    between atoms: _162  and  _164
REMARK   73  A    between atoms: _164  and  _165
REMARK   74  A    between atoms: _164  and  _167
REMARK   75  A    between atoms: _167  and  _168
REMARK   76  A    between atoms: _168  and  _169
REMARK   77  A    between atoms: _172  and  _174
REMARK   78  A    between atoms: _174  and  _175
REMARK   79  A    between atoms: _174  and  _177
REMARK   80  A    between atoms: _177  and  _178
REMARK   81  A    between atoms: _181  and  _183
REMARK   82  A    between atoms: _183  and  _184
REMARK   83  A    between atoms: _183  and  _186
REMARK   84  A    between atoms: _186  and  _187
REMARK   85  A    between atoms: _190  and  _192
REMARK   86  A    between atoms: _192  and  _193
REMARK   87  A    between atoms: _192  and  _195
REMARK   88  A    between atoms: _195  and  _196
REMARK   89  A    between atoms: _199  and  _201
REMARK   90  A    between atoms: _201  and  _202
REMARK   91  A    between atoms: _201  and  _204
REMARK   92  A    between atoms: _204  and  _205
REMARK   93  A    between atoms: _208  and  _210
REMARK   94  A    between atoms: _210  and  _211
REMARK   95  A    between atoms: _213  and  _215
REMARK   96  A    between atoms: _215  and  _216
REMARK   97  A    between atoms: _215  and  _218
REMARK   98  A    between atoms: _218  and  _219
REMARK   99  A    between atoms: _224  and  _226
REMARK  100  A    between atoms: _226  and  _227
REMARK  101  A    between atoms: _226  and  _229
REMARK  102  A    between atoms: _232  and  _234
REMARK  103  A    between atoms: _234  and  _235
REMARK  104  A    between atoms: _234  and  _237
REMARK  105  A    between atoms: _240  and  _242
REMARK  106  A    between atoms: _242  and  _243
REMARK  107  A    between atoms: _242  and  _245
REMARK  108  A    between atoms: _245  and  _246
REMARK  109  A    between atoms: _251  and  _253
REMARK  110  A    between atoms: _253  and  _254
REMARK  111  A    between atoms: _253  and  _256
REMARK  112  A    between atoms: _256  and  _257
REMARK  113  A    between atoms: _260  and  _262
REMARK  114  A    between atoms: _262  and  _263
REMARK  115  A    between atoms: _262  and  _265
REMARK  116  A    between atoms: _268  and  _270
REMARK  117  A    between atoms: _270  and  _271
REMARK  118  A    between atoms: _270  and  _273
REMARK  119  A    between atoms: _273  and  _274
REMARK  120  A    between atoms: _277  and  _279
REMARK  121  A    between atoms: _279  and  _280
REMARK  122  A    between atoms: _279  and  _282
REMARK  123  A    between atoms: _285  and  _287
REMARK  124  A    between atoms: _287  and  _288
REMARK  125  A    between atoms: _287  and  _290
REMARK  126  A    between atoms: _290  and  _291
REMARK  127  A    between atoms: _291  and  _292
REMARK  128  A    between atoms: _295  and  _297
REMARK  129  A    between atoms: _297  and  _298
REMARK  130  A    between atoms: _297  and  _300
REMARK  131  A    between atoms: _300  and  _301
REMARK  132  A    between atoms: _307  and  _309
REMARK  133  A    between atoms: _309  and  _310
REMARK  134  A    between atoms: _309  and  _312
REMARK  135  A    between atoms: _314  and  _316
REMARK  136  A    between atoms: _316  and  _317
REMARK  137  A    between atoms: _316  and  _319
REMARK  138  A    between atoms: _319  and  _320
REMARK  139  A    between atoms: _320  and  _321
REMARK  140  A    between atoms: _321  and  _322
REMARK  141  A    between atoms: _322  and  _323
REMARK  142  A    between atoms: _327  and  _329
REMARK  143  A    between atoms: _329  and  _330
REMARK  144  A    between atoms: _329  and  _332
REMARK  145  A    between atoms: _332  and  _333
REMARK  146  A    between atoms: _339  and  _341
REMARK  147  A    between atoms: _341  and  _342
REMARK  148  A    between atoms: _344  and  _346
REMARK  149  A    between atoms: _346  and  _347
REMARK  150  A    between atoms: _346  and  _349
REMARK  151  A    between atoms: _349  and  _350
REMARK  152  A    between atoms: _355  and  _357
REMARK  153  A    between atoms: _357  and  _358
REMARK  154  A    between atoms: _360  and  _362
REMARK  155  A    between atoms: _362  and  _363
REMARK  156  A    between atoms: _362  and  _365
REMARK  157  A    between atoms: _365  and  _366
REMARK  158  A    between atoms: _366  and  _367
REMARK  159  A    between atoms: _369  and  _371
REMARK  160  A    between atoms: _371  and  _372
REMARK  161  A    between atoms: _371  and  _374
REMARK  162  A    between atoms: _374  and  _375
REMARK  163  A    between atoms: _381  and  _383
REMARK  164  A    between atoms: _383  and  _384
REMARK  165  A    between atoms: _383  and  _386
REMARK  166  A    between atoms: _386  and  _387
REMARK  167  A    between atoms: _390  and  _392
REMARK  168  A    between atoms: _392  and  _393
REMARK  169  A    between atoms: _392  and  _395
REMARK  170  A    between atoms: _397  and  _399
REMARK  171  A    between atoms: _399  and  _400
REMARK  172  A    between atoms: _399  and  _402
REMARK  173  A    between atoms: _402  and  _403
REMARK  174  A    between atoms: _406  and  _408
REMARK  175  A    between atoms: _408  and  _409
REMARK  176  A    between atoms: _408  and  _411
REMARK  177  A    between atoms: _411  and  _412
REMARK  178  A    between atoms: _417  and  _419
REMARK  179  A    between atoms: _419  and  _420
REMARK  180  A    between atoms: _419  and  _422
REMARK  181  A    between atoms: _422  and  _423
REMARK  182  A    between atoms: _423  and  _424
REMARK  183  A    between atoms: _424  and  _425
REMARK  184  A    between atoms: _434  and  _436
REMARK  185  A    between atoms: _436  and  _437
REMARK  186  A    between atoms: _436  and  _439
REMARK  187  A    between atoms: _439  and  _440
REMARK  188  A    between atoms: _443  and  _445
REMARK  189  A    between atoms: _445  and  _446
REMARK  190  A    between atoms: _445  and  _448
REMARK  191  A    between atoms: _448  and  _449
REMARK  192  A    between atoms: _452  and  _454
REMARK  193  A    between atoms: _454  and  _455
REMARK  194  A    between atoms: _454  and  _457
REMARK  195  A    between atoms: _457  and  _458
REMARK  196  A    between atoms: _458  and  _459
REMARK  197  A    between atoms: _459  and  _460
REMARK  198  A    between atoms: _469  and  _471
REMARK  199  A    between atoms: _471  and  _472
REMARK  200  A    between atoms: _471  and  _474
REMARK  201  A    between atoms: _474  and  _475
REMARK  202  A    between atoms: _480  and  _482
REMARK  203  A    between atoms: _482  and  _483
REMARK  204  A    between atoms: _482  and  _485
REMARK  205  A    between atoms: _485  and  _486
REMARK  206  A    between atoms: _489  and  _491
REMARK  207  A    between atoms: _491  and  _492
REMARK  208  A    between atoms: _491  and  _494
REMARK  209  A    between atoms: _494  and  _495
REMARK  210  A    between atoms: _498  and  _500
REMARK  211  A    between atoms: _500  and  _501
REMARK  212  A    between atoms: _500  and  _503
REMARK  213  A    between atoms: _503  and  _504
REMARK  214  A    between atoms: _507  and  _509
REMARK  215  A    between atoms: _509  and  _510
REMARK  216  A    between atoms: _509  and  _512
REMARK  217  A    between atoms: _512  and  _513
REMARK  218  A    between atoms: _515  and  _517
REMARK  219  A    between atoms: _517  and  _518
REMARK  220  A    between atoms: _517  and  _520
REMARK  221  A    between atoms: _520  and  _521
REMARK  222  A    between atoms: _521  and  _522
REMARK  223  A    between atoms: _522  and  _523
REMARK  224  A    between atoms: _523  and  _524
REMARK  225  A    between atoms: _528  and  _530
REMARK  226  A    between atoms: _530  and  _531
REMARK  227  A    between atoms: _530  and  _533
REMARK  228  A    between atoms: _533  and  _534
REMARK  229  A    between atoms: _537  and  _539
REMARK  230  A    between atoms: _539  and  _540
REMARK  231  A    between atoms: _539  and  _542
REMARK  232  A    between atoms: _544  and  _546
REMARK  233  A    between atoms: _546  and  _547
REMARK  234  A    between atoms: _546  and  _549
REMARK  235  A    between atoms: _549  and  _550
REMARK  236  A    between atoms: _553  and  _555
REMARK  237  A    between atoms: _555  and  _556
REMARK  238  A    between atoms: _555  and  _558
REMARK  239  A    between atoms: _558  and  _559
REMARK  240  A    between atoms: _565  and  _567
REMARK  241  A    between atoms: _567  and  _568
REMARK  242  A    between atoms: _570  and  _572
REMARK  243  A    between atoms: _572  and  _573
REMARK  244  A    between atoms: _572  and  _575
REMARK  245  A    between atoms: _575  and  _576
REMARK  246  A    between atoms: _579  and  _581
REMARK  247  A    between atoms: _581  and  _582
REMARK  248  A    between atoms: _585  and  _587
REMARK  249  A    between atoms: _587  and  _588
REMARK  250  A    between atoms: _587  and  _590
REMARK  251  A    between atoms: _590  and  _591
REMARK  252  A    between atoms: _591  and  _592
REMARK  253  A    between atoms: _592  and  _593
REMARK                            x       y       z     vdW  Elec       q    Type
REMARK                         _______ _______ _______ _____ _____    ______ ____
ROOT
ATOM      1  O   HOH     1     -33.853  -8.334   0.000  0.00  0.00    +0.000 OA
ENDROOT
TORSDOF 0
REMARK  Name = ../refined-set-2016/4asd/4asd_pocket.pdb
REMARK  253 active torsions:
REMARK  status: ('A' for Active; 'I' for Inactive)
REMARK    1  A    between atoms: _1  and  _3
REMARK    2  A    between atoms: _3  and  _4
REMARK    3  A    between atoms: _3  and  _6
REMARK    4  A    between atoms: _6  and  _7
REMARK    5  A    between atoms: _10  and  _12
REMARK    6  A    between atoms: _12  and  _13
REMARK    7  A    between atoms: _12  and  _15
REMARK    8  A    between atoms: _15  and  _16
REMARK    9  A    between atoms: _19  and  _21
REMARK   10  A    between atoms: _21  and  _22
REMARK   11  A    between atoms: _21  and  _24
REMARK   12  A    between atoms: _24  and  _25
REMARK   13  A    between atoms: _25  and  _26
REMARK   14  A    between atoms: _26  and  _27
REMARK   15  A    between atoms: _27  and  _28
REMARK   16  A    between atoms: _33  and  _34
REMARK   17  A    between atoms: _39  and  _41
REMARK   18  A    between atoms: _41  and  _42
REMARK   19  A    between atoms: _41  and  _44
REMARK   20  A    between atoms: _44  and  _45
REMARK   21  A    between atoms: _48  and  _50
REMARK   22  A    between atoms: _50  and  _51
REMARK   23  A    between atoms: _53  and  _55
REMARK   24  A    between atoms: _55  and  _56
REMARK   25  A    between atoms: _55  and  _58
REMARK   26  A    between atoms: _58  and  _59
REMARK   27  A    between atoms: _59  and  _60
REMARK   28  A    between atoms: _65  and  _67
REMARK   29  A    between atoms: _67  and  _68
REMARK   30  A    between atoms: _67  and  _70
REMARK   31  A    between atoms: _73  and  _75
REMARK   32  A    between atoms: _75  and  _76
REMARK   33  A    between atoms: _75  and  _78
REMARK   34  A    between atoms: _78  and  _79
REMARK   35  A    between atoms: _82  and  _84
REMARK   36  A    between atoms: _84  and  _85
REMARK   37  A    between atoms: _84  and  _87
REMARK   38  A    between atoms: _87  and  _88
REMARK   39  A    between atoms: _88  and  _89
REMARK   40  A    between atoms: _92  and  _94
REMARK   41  A    between atoms: _94  and  _95
REMARK   42  A    between atoms: _94  and  _97
REMARK   43  A    between atoms: _97  and  _98
REMARK   44  A    between atoms: _101  and  _103
REMARK   45  A    between atoms: _103  and  _104
REMARK   46  A    between atoms: _103  and  _106
REMARK   47  A    between atoms: _109  and  _111
REMARK   48  A    between atoms: _111  and  _112
REMARK   49  A    between atoms: _115  and  _117
REMARK   50  A    between atoms: _117  and  _118
REMARK   51  A    between atoms: _117  and  _120
REMARK   52  A    between atoms: _123  and  _125
REMARK   53  A    between atoms: _125  and  _126
REMARK   54  A    between atoms: _125  and  _128
REMARK   55  A    between atoms: _128  and  _129
REMARK   56  A    between atoms: _129  and  _130
REMARK   57  A    between atoms: _130  and  _131
REMARK   58  A    between atoms: _131  and  _132
REMARK   59  A    between atoms: _136  and  _138
REMARK   60  A    between atoms: _138  and  _139
REMARK   61  A    between atoms: _138  and  _141
REMARK   62  A    between atoms: _141  and  _142
REMARK   63  A    between atoms: _142  and  _143
REMARK   64  A    between atoms: _145  and  _147
REMARK   65  A    between atoms: _147  and  _148
REMARK   66  A    between atoms: _147  and  _150
REMARK   67  A    between atoms: _150  and  _151
REMARK   68  A    between atoms: _154  and  _156
REMARK   69  A    between atoms: _156  and  _157
REMARK   70  A    between atoms: _156  and  _159
REMARK   71  A    between atoms: _159  and  _160
REMARK   72  A    between atoms: _162  and  _164
REMARK   73  A    between atoms: _164  and  _165
REMARK   74  A    between atoms: _164  and  _167
REMARK   75  A    between atoms: _167  and  _168
REMARK   76  A    between atoms: _168  and  _169
REMARK   77  A    between atoms: _172  and  _174
REMARK   78  A    between atoms: _174  and  _175
REMARK   79  A    between atoms: _174  and  _177
REMARK   80  A    between atoms: _177  and  _178
REMARK   81  A    between atoms: _181  and  _183
REMARK   82  A    between atoms: _183  and  _184
REMARK   83  A    between atoms: _183  and  _186
REMARK   84  A    between atoms: _186  and  _187
REMARK   85  A    between atoms: _190  and  _192
REMARK   86  A    between atoms: _192  and  _193
REMARK   87  A    between atoms: _192  and  _195
REMARK   88  A    between atoms: _195  and  _196
REMARK   89  A    between atoms: _199  and  _201
REMARK   90  A    between atoms: _201  and  _202
REMARK   91  A    between atoms: _201  and  _204
REMARK   92  A    between atoms: _204  and  _205
REMARK   93  A    between atoms: _208  and  _210
REMARK   94  A    between atoms: _210  and  _211
REMARK   95  A    between atoms: _213  and  _215
REMARK   96  A    between atoms: _215  and  _216
REMARK   97  A    between atoms: _215  and  _218
REMARK   98  A    between atoms: _218  and  _219
REMARK   99  A    between atoms: _224  and  _226
REMARK  100  A    between atoms: _226  and  _227
REMARK  101  A    between atoms: _226  and  _229
REMARK  102  A    between atoms: _232  and  _234
REMARK  103  A    between atoms: _234  and  _235
REMARK  104  A    between atoms: _234  and  _237
REMARK  105  A    between atoms: _240  and  _242
REMARK  106  A    between atoms: _242  and  _243
REMARK  107  A    between atoms: _242  and  _245
REMARK  108  A    between atoms: _245  and  _246
REMARK  109  A    between atoms: _251  and  _253
REMARK  110  A    between atoms: _253  and  _254
REMARK  111  A    between atoms: _253  and  _256
REMARK  112  A    between atoms: _256  and  _257
REMARK  113  A    between atoms: _260  and  _262
REMARK  114  A    between atoms: _262  and  _263
REMARK  115  A    between atoms: _262  and  _265
REMARK  116  A    between atoms: _268  and  _270
REMARK  117  A    between atoms: _270  and  _271
REMARK  118  A    between atoms: _270  and  _273
REMARK  119  A    between atoms: _273  and  _274
REMARK  120  A    between atoms: _277  and  _279
REMARK  121  A    between atoms: _279  and  _280
REMARK  122  A    between atoms: _279  and  _282
REMARK  123  A    between atoms: _285  and  _287
REMARK  124  A    between atoms: _287  and  _288
REMARK  125  A    between atoms: _287  and  _290
REMARK  126  A    between atoms: _290  and  _291
REMARK  127  A    between atoms: _291  and  _292
REMARK  128  A    between atoms: _295  and  _297
REMARK  129  A    between atoms: _297  and  _298
REMARK  130  A    between atoms: _297  and  _300
REMARK  131  A    between atoms: _300  and  _301
REMARK  132  A    between atoms: _307  and  _309
REMARK  133  A    between atoms: _309  and  _310
REMARK  134  A    between atoms: _309  and  _312
REMARK  135  A    between atoms: _314  and  _316
REMARK  136  A    between atoms: _316  and  _317
REMARK  137  A    between atoms: _316  and  _319
REMARK  138  A    between atoms: _319  and  _320
REMARK  139  A    between atoms: _320  and  _321
REMARK  140  A    between atoms: _321  and  _322
REMARK  141  A    between atoms: _322  and  _323
REMARK  142  A    between atoms: _327  and  _329
REMARK  143  A    between atoms: _329  and  _330
REMARK  144  A    between atoms: _329  and  _332
REMARK  145  A    between atoms: _332  and  _333
REMARK  146  A    between atoms: _339  and  _341
REMARK  147  A    between atoms: _341  and  _342
REMARK  148  A    between atoms: _344  and  _346
REMARK  149  A    between atoms: _346  and  _347
REMARK  150  A    between atoms: _346  and  _349
REMARK  151  A    between atoms: _349  and  _350
REMARK  152  A    between atoms: _355  and  _357
REMARK  153  A    between atoms: _357  and  _358
REMARK  154  A    between atoms: _360  and  _362
REMARK  155  A    between atoms: _362  and  _363
REMARK  156  A    between atoms: _362  and  _365
REMARK  157  A    between atoms: _365  and  _366
REMARK  158  A    between atoms: _366  and  _367
REMARK  159  A    between atoms: _369  and  _371
REMARK  160  A    between atoms: _371  and  _372
REMARK  161  A    between atoms: _371  and  _374
REMARK  162  A    between atoms: _374  and  _375
REMARK  163  A    between atoms: _381  and  _383
REMARK  164  A    between atoms: _383  and  _384
REMARK  165  A    between atoms: _383  and  _386
REMARK  166  A    between atoms: _386  and  _387
REMARK  167  A    between atoms: _390  and  _392
REMARK  168  A    between atoms: _392  and  _393
REMARK  169  A    between atoms: _392  and  _395
REMARK  170  A    between atoms: _397  and  _399
REMARK  171  A    between atoms: _399  and  _400
REMARK  172  A    between atoms: _399  and  _402
REMARK  173  A    between atoms: _402  and  _403
REMARK  174  A    between atoms: _406  and  _408
REMARK  175  A    between atoms: _408  and  _409
REMARK  176  A    between atoms: _408  and  _411
REMARK  177  A    between atoms: _411  and  _412
REMARK  178  A    between atoms: _417  and  _419
REMARK  179  A    between atoms: _419  and  _420
REMARK  180  A    between atoms: _419  and  _422
REMARK  181  A    between atoms: _422  and  _423
REMARK  182  A    between atoms: _423  and  _424
REMARK  183  A    between atoms: _424  and  _425
REMARK  184  A    between atoms: _434  and  _436
REMARK  185  A    between atoms: _436  and  _437
REMARK  186  A    between atoms: _436  and  _439
REMARK  187  A    between atoms: _439  and  _440
REMARK  188  A    between atoms: _443  and  _445
REMARK  189  A    between atoms: _445  and  _446
REMARK  190  A    between atoms: _445  and  _448
REMARK  191  A    between atoms: _448  and  _449
REMARK  192  A    between atoms: _452  and  _454
REMARK  193  A    between atoms: _454  and  _455
REMARK  194  A    between atoms: _454  and  _457
REMARK  195  A    between atoms: _457  and  _458
REMARK  196  A    between atoms: _458  and  _459
REMARK  197  A    between atoms: _459  and  _460
REMARK  198  A    between atoms: _469  and  _471
REMARK  199  A    between atoms: _471  and  _472
REMARK  200  A    between atoms: _471  and  _474
REMARK  201  A    between atoms: _474  and  _475
REMARK  202  A    between atoms: _480  and  _482
REMARK  203  A    between atoms: _482  and  _483
REMARK  204  A    between atoms: _482  and  _485
REMARK  205  A    between atoms: _485  and  _486
REMARK  206  A    between atoms: _489  and  _491
REMARK  207  A    between atoms: _491  and  _492
REMARK  208  A    between atoms: _491  and  _494
REMARK  209  A    between atoms: _494  and  _495
REMARK  210  A    between atoms: _498  and  _500
REMARK  211  A    between atoms: _500  and  _501
REMARK  212  A    between atoms: _500  and  _503
REMARK  213  A    between atoms: _503  and  _504
REMARK  214  A    between atoms: _507  and  _509
REMARK  215  A    between atoms: _509  and  _510
REMARK  216  A    between atoms: _509  and  _512
REMARK  217  A    between atoms: _512  and  _513
REMARK  218  A    between atoms: _515  and  _517
REMARK  219  A    between atoms: _517  and  _518
REMARK  220  A    between atoms: _517  and  _520
REMARK  221  A    between atoms: _520  and  _521
REMARK  222  A    between atoms: _521  and  _522
REMARK  223  A    between atoms: _522  and  _523
REMARK  224  A    between atoms: _523  and  _524
REMARK  225  A    between atoms: _528  and  _530
REMARK  226  A    between atoms: _530  and  _531
REMARK  227  A    between atoms: _530  and  _533
REMARK  228  A    between atoms: _533  and  _534
REMARK  229  A    between atoms: _537  and  _539
REMARK  230  A    between atoms: _539  and  _540
REMARK  231  A    between atoms: _539  and  _542
REMARK  232  A    between atoms: _544  and  _546
REMARK  233  A    between atoms: _546  and  _547
REMARK  234  A    between atoms: _546  and  _549
REMARK  235  A    between atoms: _549  and  _550
REMARK  236  A    between atoms: _553  and  _555
REMARK  237  A    between atoms: _555  and  _556
REMARK  238  A    between atoms: _555  and  _558
REMARK  239  A    between atoms: _558  and  _559
REMARK  240  A    between atoms: _565  and  _567
REMARK  241  A    between atoms: _567  and  _568
REMARK  242  A    between atoms: _570  and  _572
REMARK  243  A    between atoms: _572  and  _573
REMARK  244  A    between atoms: _572  and  _575
REMARK  245  A    between atoms: _575  and  _576
REMARK  246  A    between atoms: _579  and  _581
REMARK  247  A    between atoms: _581  and  _582
REMARK  248  A    between atoms: _585  and  _587
REMARK  249  A    between atoms: _587  and  _588
REMARK  250  A    between atoms: _587  and  _590
REMARK  251  A    between atoms: _590  and  _591
REMARK  252  A    between atoms: _591  and  _592
REMARK  253  A    between atoms: _592  and  _593
REMARK                            x       y       z     vdW  Elec       q    Type
REMARK                         _______ _______ _______ _____ _____    ______ ____
ROOT
ATOM      1  O   HOH     1     -32.788  -6.387  -0.658  0.00  0.00    +0.000 OA
ENDROOT
TORSDOF 0
REMARK  Name = ../refined-set-2016/4asd/4asd_pocket.pdb
REMARK  253 active torsions:
REMARK  status: ('A' for Active; 'I' for Inactive)
REMARK    1  A    between atoms: _1  and  _3
REMARK    2  A    between atoms: _3  and  _4
REMARK    3  A    between atoms: _3  and  _6
REMARK    4  A    between atoms: _6  and  _7
REMARK    5  A    between atoms: _10  and  _12
REMARK    6  A    between atoms: _12  and  _13
REMARK    7  A    between atoms: _12  and  _15
REMARK    8  A    between atoms: _15  and  _16
REMARK    9  A    between atoms: _19  and  _21
REMARK   10  A    between atoms: _21  and  _22
REMARK   11  A    between atoms: _21  and  _24
REMARK   12  A    between atoms: _24  and  _25
REMARK   13  A    between atoms: _25  and  _26
REMARK   14  A    between atoms: _26  and  _27
REMARK   15  A    between atoms: _27  and  _28
REMARK   16  A    between atoms: _33  and  _34
REMARK   17  A    between atoms: _39  and  _41
REMARK   18  A    between atoms: _41  and  _42
REMARK   19  A    between atoms: _41  and  _44
REMARK   20  A    between atoms: _44  and  _45
REMARK   21  A    between atoms: _48  and  _50
REMARK   22  A    between atoms: _50  and  _51
REMARK   23  A    between atoms: _53  and  _55
REMARK   24  A    between atoms: _55  and  _56
REMARK   25  A    between atoms: _55  and  _58
REMARK   26  A    between atoms: _58  and  _59
REMARK   27  A    between atoms: _59  and  _60
REMARK   28  A    between atoms: _65  and  _67
REMARK   29  A    between atoms: _67  and  _68
REMARK   30  A    between atoms: _67  and  _70
REMARK   31  A    between atoms: _73  and  _75
REMARK   32  A    between atoms: _75  and  _76
REMARK   33  A    between atoms: _75  and  _78
REMARK   34  A    between atoms: _78  and  _79
REMARK   35  A    between atoms: _82  and  _84
REMARK   36  A    between atoms: _84  and  _85
REMARK   37  A    between atoms: _84  and  _87
REMARK   38  A    between atoms: _87  and  _88
REMARK   39  A    between atoms: _88  and  _89
REMARK   40  A    between atoms: _92  and  _94
REMARK   41  A    between atoms: _94  and  _95
REMARK   42  A    between atoms: _94  and  _97
REMARK   43  A    between atoms: _97  and  _98
REMARK   44  A    between atoms: _101  and  _103
REMARK   45  A    between atoms: _103  and  _104
REMARK   46  A    between atoms: _103  and  _106
REMARK   47  A    between atoms: _109  and  _111
REMARK   48  A    between atoms: _111  and  _112
REMARK   49  A    between atoms: _115  and  _117
REMARK   50  A    between atoms: _117  and  _118
REMARK   51  A    between atoms: _117  and  _120
REMARK   52  A    between atoms: _123  and  _125
REMARK   53  A    between atoms: _125  and  _126
REMARK   54  A    between atoms: _125  and  _128
REMARK   55  A    between atoms: _128  and  _129
REMARK   56  A    between atoms: _129  and  _130
REMARK   57  A    between atoms: _130  and  _131
REMARK   58  A    between atoms: _131  and  _132
REMARK   59  A    between atoms: _136  and  _138
REMARK   60  A    between atoms: _138  and  _139
REMARK   61  A    between atoms: _138  and  _141
REMARK   62  A    between atoms: _141  and  _142
REMARK   63  A    between atoms: _142  and  _143
REMARK   64  A    between atoms: _145  and  _147
REMARK   65  A    between atoms: _147  and  _148
REMARK   66  A    between atoms: _147  and  _150
REMARK   67  A    between atoms: _150  and  _151
REMARK   68  A    between atoms: _154  and  _156
REMARK   69  A    between atoms: _156  and  _157
REMARK   70  A    between atoms: _156  and  _159
REMARK   71  A    between atoms: _159  and  _160
REMARK   72  A    between atoms: _162  and  _164
REMARK   73  A    between atoms: _164  and  _165
REMARK   74  A    between atoms: _164  and  _167
REMARK   75  A    between atoms: _167  and  _168
REMARK   76  A    between atoms: _168  and  _169
REMARK   77  A    between atoms: _172  and  _174
REMARK   78  A    between atoms: _174  and  _175
REMARK   79  A    between atoms: _174  and  _177
REMARK   80  A    between atoms: _177  and  _178
REMARK   81  A    between atoms: _181  and  _183
REMARK   82  A    between atoms: _183  and  _184
REMARK   83  A    between atoms: _183  and  _186
REMARK   84  A    between atoms: _186  and  _187
REMARK   85  A    between atoms: _190  and  _192
REMARK   86  A    between atoms: _192  and  _193
REMARK   87  A    between atoms: _192  and  _195
REMARK   88  A    between atoms: _195  and  _196
REMARK   89  A    between atoms: _199  and  _201
REMARK   90  A    between atoms: _201  and  _202
REMARK   91  A    between atoms: _201  and  _204
REMARK   92  A    between atoms: _204  and  _205
REMARK   93  A    between atoms: _208  and  _210
REMARK   94  A    between atoms: _210  and  _211
REMARK   95  A    between atoms: _213  and  _215
REMARK   96  A    between atoms: _215  and  _216
REMARK   97  A    between atoms: _215  and  _218
REMARK   98  A    between atoms: _218  and  _219
REMARK   99  A    between atoms: _224  and  _226
REMARK  100  A    between atoms: _226  and  _227
REMARK  101  A    between atoms: _226  and  _229
REMARK  102  A    between atoms: _232  and  _234
REMARK  103  A    between atoms: _234  and  _235
REMARK  104  A    between atoms: _234  and  _237
REMARK  105  A    between atoms: _240  and  _242
REMARK  106  A    between atoms: _242  and  _243
REMARK  107  A    between atoms: _242  and  _245
REMARK  108  A    between atoms: _245  and  _246
REMARK  109  A    between atoms: _251  and  _253
REMARK  110  A    between atoms: _253  and  _254
REMARK  111  A    between atoms: _253  and  _256
REMARK  112  A    between atoms: _256  and  _257
REMARK  113  A    between atoms: _260  and  _262
REMARK  114  A    between atoms: _262  and  _263
REMARK  115  A    between atoms: _262  and  _265
REMARK  116  A    between atoms: _268  and  _270
REMARK  117  A    between atoms: _270  and  _271
REMARK  118  A    between atoms: _270  and  _273
REMARK  119  A    between atoms: _273  and  _274
REMARK  120  A    between atoms: _277  and  _279
REMARK  121  A    between atoms: _279  and  _280
REMARK  122  A    between atoms: _279  and  _282
REMARK  123  A    between atoms: _285  and  _287
REMARK  124  A    between atoms: _287  and  _288
REMARK  125  A    between atoms: _287  and  _290
REMARK  126  A    between atoms: _290  and  _291
REMARK  127  A    between atoms: _291  and  _292
REMARK  128  A    between atoms: _295  and  _297
REMARK  129  A    between atoms: _297  and  _298
REMARK  130  A    between atoms: _297  and  _300
REMARK  131  A    between atoms: _300  and  _301
REMARK  132  A    between atoms: _307  and  _309
REMARK  133  A    between atoms: _309  and  _310
REMARK  134  A    between atoms: _309  and  _312
REMARK  135  A    between atoms: _314  and  _316
REMARK  136  A    between atoms: _316  and  _317
REMARK  137  A    between atoms: _316  and  _319
REMARK  138  A    between atoms: _319  and  _320
REMARK  139  A    between atoms: _320  and  _321
REMARK  140  A    between atoms: _321  and  _322
REMARK  141  A    between atoms: _322  and  _323
REMARK  142  A    between atoms: _327  and  _329
REMARK  143  A    between atoms: _329  and  _330
REMARK  144  A    between atoms: _329  and  _332
REMARK  145  A    between atoms: _332  and  _333
REMARK  146  A    between atoms: _339  and  _341
REMARK  147  A    between atoms: _341  and  _342
REMARK  148  A    between atoms: _344  and  _346
REMARK  149  A    between atoms: _346  and  _347
REMARK  150  A    between atoms: _346  and  _349
REMARK  151  A    between atoms: _349  and  _350
REMARK  152  A    between atoms: _355  and  _357
REMARK  153  A    between atoms: _357  and  _358
REMARK  154  A    between atoms: _360  and  _362
REMARK  155  A    between atoms: _362  and  _363
REMARK  156  A    between atoms: _362  and  _365
REMARK  157  A    between atoms: _365  and  _366
REMARK  158  A    between atoms: _366  and  _367
REMARK  159  A    between atoms: _369  and  _371
REMARK  160  A    between atoms: _371  and  _372
REMARK  161  A    between atoms: _371  and  _374
REMARK  162  A    between atoms: _374  and  _375
REMARK  163  A    between atoms: _381  and  _383
REMARK  164  A    between atoms: _383  and  _384
REMARK  165  A    between atoms: _383  and  _386
REMARK  166  A    between atoms: _386  and  _387
REMARK  167  A    between atoms: _390  and  _392
REMARK  168  A    between atoms: _392  and  _393
REMARK  169  A    between atoms: _392  and  _395
REMARK  170  A    between atoms: _397  and  _399
REMARK  171  A    between atoms: _399  and  _400
REMARK  172  A    between atoms: _399  and  _402
REMARK  173  A    between atoms: _402  and  _403
REMARK  174  A    between atoms: _406  and  _408
REMARK  175  A    between atoms: _408  and  _409
REMARK  176  A    between atoms: _408  and  _411
REMARK  177  A    between atoms: _411  and  _412
REMARK  178  A    between atoms: _417  and  _419
REMARK  179  A    between atoms: _419  and  _420
REMARK  180  A    between atoms: _419  and  _422
REMARK  181  A    between atoms: _422  and  _423
REMARK  182  A    between atoms: _423  and  _424
REMARK  183  A    between atoms: _424  and  _425
REMARK  184  A    between atoms: _434  and  _436
REMARK  185  A    between atoms: _436  and  _437
REMARK  186  A    between atoms: _436  and  _439
REMARK  187  A    between atoms: _439  and  _440
REMARK  188  A    between atoms: _443  and  _445
REMARK  189  A    between atoms: _445  and  _446
REMARK  190  A    between atoms: _445  and  _448
REMARK  191  A    between atoms: _448  and  _449
REMARK  192  A    between atoms: _452  and  _454
REMARK  193  A    between atoms: _454  and  _455
REMARK  194  A    between atoms: _454  and  _457
REMARK  195  A    between atoms: _457  and  _458
REMARK  196  A    between atoms: _458  and  _459
REMARK  197  A    between atoms: _459  and  _460
REMARK  198  A    between atoms: _469  and  _471
REMARK  199  A    between atoms: _471  and  _472
REMARK  200  A    between atoms: _471  and  _474
REMARK  201  A    between atoms: _474  and  _475
REMARK  202  A    between atoms: _480  and  _482
REMARK  203  A    between atoms: _482  and  _483
REMARK  204  A    between atoms: _482  and  _485
REMARK  205  A    between atoms: _485  and  _486
REMARK  206  A    between atoms: _489  and  _491
REMARK  207  A    between atoms: _491  and  _492
REMARK  208  A    between atoms: _491  and  _494
REMARK  209  A    between atoms: _494  and  _495
REMARK  210  A    between atoms: _498  and  _500
REMARK  211  A    between atoms: _500  and  _501
REMARK  212  A    between atoms: _500  and  _503
REMARK  213  A    between atoms: _503  and  _504
REMARK  214  A    between atoms: _507  and  _509
REMARK  215  A    between atoms: _509  and  _510
REMARK  216  A    between atoms: _509  and  _512
REMARK  217  A    between atoms: _512  and  _513
REMARK  218  A    between atoms: _515  and  _517
REMARK  219  A    between atoms: _517  and  _518
REMARK  220  A    between atoms: _517  and  _520
REMARK  221  A    between atoms: _520  and  _521
REMARK  222  A    between atoms: _521  and  _522
REMARK  223  A    between atoms: _522  and  _523
REMARK  224  A    between atoms: _523  and  _524
REMARK  225  A    between atoms: _528  and  _530
REMARK  226  A    between atoms: _530  and  _531
REMARK  227  A    between atoms: _530  and  _533
REMARK  228  A    between atoms: _533  and  _534
REMARK  229  A    between atoms: _537  and  _539
REMARK  230  A    between atoms: _539  and  _540
REMARK  231  A    between atoms: _539  and  _542
REMARK  232  A    between atoms: _544  and  _546
REMARK  233  A    between atoms: _546  and  _547
REMARK  234  A    between atoms: _546  and  _549
REMARK  235  A    between atoms: _549  and  _550
REMARK  236  A    between atoms: _553  and  _555
REMARK  237  A    between atoms: _555  and  _556
REMARK  238  A    between atoms: _555  and  _558
REMARK  239  A    between atoms: _558  and  _559
REMARK  240  A    between atoms: _565  and  _567
REMARK  241  A    between atoms: _567  and  _568
REMARK  242  A    between atoms: _570  and  _572
REMARK  243  A    between atoms: _572  and  _573
REMARK  244  A    between atoms: _572  and  _575
REMARK  245  A    between atoms: _575  and  _576
REMARK  246  A    between atoms: _579  and  _581
REMARK  247  A    between atoms: _581  and  _582
REMARK  248  A    between atoms: _585  and  _587
REMARK  249  A    between atoms: _587  and  _588
REMARK  250  A    between atoms: _587  and  _590
REMARK  251  A    between atoms: _590  and  _591
REMARK  252  A    between atoms: _591  and  _592
REMARK  253  A    between atoms: _592  and  _593
REMARK                            x       y       z     vdW  Elec       q    Type
REMARK                         _______ _______ _______ _____ _____    ______ ____
ROOT
ATOM      1  O   HOH     1     -30.703  -6.639  -4.041  0.00  0.00    +0.000 OA
ENDROOT
TORSDOF 0
REMARK  Name = ../refined-set-2016/4asd/4asd_pocket.pdb
REMARK  253 active torsions:
REMARK  status: ('A' for Active; 'I' for Inactive)
REMARK    1  A    between atoms: _1  and  _3
REMARK    2  A    between atoms: _3  and  _4
REMARK    3  A    between atoms: _3  and  _6
REMARK    4  A    between atoms: _6  and  _7
REMARK    5  A    between atoms: _10  and  _12
REMARK    6  A    between atoms: _12  and  _13
REMARK    7  A    between atoms: _12  and  _15
REMARK    8  A    between atoms: _15  and  _16
REMARK    9  A    between atoms: _19  and  _21
REMARK   10  A    between atoms: _21  and  _22
REMARK   11  A    between atoms: _21  and  _24
REMARK   12  A    between atoms: _24  and  _25
REMARK   13  A    between atoms: _25  and  _26
REMARK   14  A    between atoms: _26  and  _27
REMARK   15  A    between atoms: _27  and  _28
REMARK   16  A    between atoms: _33  and  _34
REMARK   17  A    between atoms: _39  and  _41
REMARK   18  A    between atoms: _41  and  _42
REMARK   19  A    between atoms: _41  and  _44
REMARK   20  A    between atoms: _44  and  _45
REMARK   21  A    between atoms: _48  and  _50
REMARK   22  A    between atoms: _50  and  _51
REMARK   23  A    between atoms: _53  and  _55
REMARK   24  A    between atoms: _55  and  _56
REMARK   25  A    between atoms: _55  and  _58
REMARK   26  A    between atoms: _58  and  _59
REMARK   27  A    between atoms: _59  and  _60
REMARK   28  A    between atoms: _65  and  _67
REMARK   29  A    between atoms: _67  and  _68
REMARK   30  A    between atoms: _67  and  _70
REMARK   31  A    between atoms: _73  and  _75
REMARK   32  A    between atoms: _75  and  _76
REMARK   33  A    between atoms: _75  and  _78
REMARK   34  A    between atoms: _78  and  _79
REMARK   35  A    between atoms: _82  and  _84
REMARK   36  A    between atoms: _84  and  _85
REMARK   37  A    between atoms: _84  and  _87
REMARK   38  A    between atoms: _87  and  _88
REMARK   39  A    between atoms: _88  and  _89
REMARK   40  A    between atoms: _92  and  _94
REMARK   41  A    between atoms: _94  and  _95
REMARK   42  A    between atoms: _94  and  _97
REMARK   43  A    between atoms: _97  and  _98
REMARK   44  A    between atoms: _101  and  _103
REMARK   45  A    between atoms: _103  and  _104
REMARK   46  A    between atoms: _103  and  _106
REMARK   47  A    between atoms: _109  and  _111
REMARK   48  A    between atoms: _111  and  _112
REMARK   49  A    between atoms: _115  and  _117
REMARK   50  A    between atoms: _117  and  _118
REMARK   51  A    between atoms: _117  and  _120
REMARK   52  A    between atoms: _123  and  _125
REMARK   53  A    between atoms: _125  and  _126
REMARK   54  A    between atoms: _125  and  _128
REMARK   55  A    between atoms: _128  and  _129
REMARK   56  A    between atoms: _129  and  _130
REMARK   57  A    between atoms: _130  and  _131
REMARK   58  A    between atoms: _131  and  _132
REMARK   59  A    between atoms: _136  and  _138
REMARK   60  A    between atoms: _138  and  _139
REMARK   61  A    between atoms: _138  and  _141
REMARK   62  A    between atoms: _141  and  _142
REMARK   63  A    between atoms: _142  and  _143
REMARK   64  A    between atoms: _145  and  _147
REMARK   65  A    between atoms: _147  and  _148
REMARK   66  A    between atoms: _147  and  _150
REMARK   67  A    between atoms: _150  and  _151
REMARK   68  A    between atoms: _154  and  _156
REMARK   69  A    between atoms: _156  and  _157
REMARK   70  A    between atoms: _156  and  _159
REMARK   71  A    between atoms: _159  and  _160
REMARK   72  A    between atoms: _162  and  _164
REMARK   73  A    between atoms: _164  and  _165
REMARK   74  A    between atoms: _164  and  _167
REMARK   75  A    between atoms: _167  and  _168
REMARK   76  A    between atoms: _168  and  _169
REMARK   77  A    between atoms: _172  and  _174
REMARK   78  A    between atoms: _174  and  _175
REMARK   79  A    between atoms: _174  and  _177
REMARK   80  A    between atoms: _177  and  _178
REMARK   81  A    between atoms: _181  and  _183
REMARK   82  A    between atoms: _183  and  _184
REMARK   83  A    between atoms: _183  and  _186
REMARK   84  A    between atoms: _186  and  _187
REMARK   85  A    between atoms: _190  and  _192
REMARK   86  A    between atoms: _192  and  _193
REMARK   87  A    between atoms: _192  and  _195
REMARK   88  A    between atoms: _195  and  _196
REMARK   89  A    between atoms: _199  and  _201
REMARK   90  A    between atoms: _201  and  _202
REMARK   91  A    between atoms: _201  and  _204
REMARK   92  A    between atoms: _204  and  _205
REMARK   93  A    between atoms: _208  and  _210
REMARK   94  A    between atoms: _210  and  _211
REMARK   95  A    between atoms: _213  and  _215
REMARK   96  A    between atoms: _215  and  _216
REMARK   97  A    between atoms: _215  and  _218
REMARK   98  A    between atoms: _218  and  _219
REMARK   99  A    between atoms: _224  and  _226
REMARK  100  A    between atoms: _226  and  _227
REMARK  101  A    between atoms: _226  and  _229
REMARK  102  A    between atoms: _232  and  _234
REMARK  103  A    between atoms: _234  and  _235
REMARK  104  A    between atoms: _234  and  _237
REMARK  105  A    between atoms: _240  and  _242
REMARK  106  A    between atoms: _242  and  _243
REMARK  107  A    between atoms: _242  and  _245
REMARK  108  A    between atoms: _245  and  _246
REMARK  109  A    between atoms: _251  and  _253
REMARK  110  A    between atoms: _253  and  _254
REMARK  111  A    between atoms: _253  and  _256
REMARK  112  A    between atoms: _256  and  _257
REMARK  113  A    between atoms: _260  and  _262
REMARK  114  A    between atoms: _262  and  _263
REMARK  115  A    between atoms: _262  and  _265
REMARK  116  A    between atoms: _268  and  _270
REMARK  117  A    between atoms: _270  and  _271
REMARK  118  A    between atoms: _270  and  _273
REMARK  119  A    between atoms: _273  and  _274
REMARK  120  A    between atoms: _277  and  _279
REMARK  121  A    between atoms: _279  and  _280
REMARK  122  A    between atoms: _279  and  _282
REMARK  123  A    between atoms: _285  and  _287
REMARK  124  A    between atoms: _287  and  _288
REMARK  125  A    between atoms: _287  and  _290
REMARK  126  A    between atoms: _290  and  _291
REMARK  127  A    between atoms: _291  and  _292
REMARK  128  A    between atoms: _295  and  _297
REMARK  129  A    between atoms: _297  and  _298
REMARK  130  A    between atoms: _297  and  _300
REMARK  131  A    between atoms: _300  and  _301
REMARK  132  A    between atoms: _307  and  _309
REMARK  133  A    between atoms: _309  and  _310
REMARK  134  A    between atoms: _309  and  _312
REMARK  135  A    between atoms: _314  and  _316
REMARK  136  A    between atoms: _316  and  _317
REMARK  137  A    between atoms: _316  and  _319
REMARK  138  A    between atoms: _319  and  _320
REMARK  139  A    between atoms: _320  and  _321
REMARK  140  A    between atoms: _321  and  _322
REMARK  141  A    between atoms: _322  and  _323
REMARK  142  A    between atoms: _327  and  _329
REMARK  143  A    between atoms: _329  and  _330
REMARK  144  A    between atoms: _329  and  _332
REMARK  145  A    between atoms: _332  and  _333
REMARK  146  A    between atoms: _339  and  _341
REMARK  147  A    between atoms: _341  and  _342
REMARK  148  A    between atoms: _344  and  _346
REMARK  149  A    between atoms: _346  and  _347
REMARK  150  A    between atoms: _346  and  _349
REMARK  151  A    between atoms: _349  and  _350
REMARK  152  A    between atoms: _355  and  _357
REMARK  153  A    between atoms: _357  and  _358
REMARK  154  A    between atoms: _360  and  _362
REMARK  155  A    between atoms: _362  and  _363
REMARK  156  A    between atoms: _362  and  _365
REMARK  157  A    between atoms: _365  and  _366
REMARK  158  A    between atoms: _366  and  _367
REMARK  159  A    between atoms: _369  and  _371
REMARK  160  A    between atoms: _371  and  _372
REMARK  161  A    between atoms: _371  and  _374
REMARK  162  A    between atoms: _374  and  _375
REMARK  163  A    between atoms: _381  and  _383
REMARK  164  A    between atoms: _383  and  _384
REMARK  165  A    between atoms: _383  and  _386
REMARK  166  A    between atoms: _386  and  _387
REMARK  167  A    between atoms: _390  and  _392
REMARK  168  A    between atoms: _392  and  _393
REMARK  169  A    between atoms: _392  and  _395
REMARK  170  A    between atoms: _397  and  _399
REMARK  171  A    between atoms: _399  and  _400
REMARK  172  A    between atoms: _399  and  _402
REMARK  173  A    between atoms: _402  and  _403
REMARK  174  A    between atoms: _406  and  _408
REMARK  175  A    between atoms: _408  and  _409
REMARK  176  A    between atoms: _408  and  _411
REMARK  177  A    between atoms: _411  and  _412
REMARK  178  A    between atoms: _417  and  _419
REMARK  179  A    between atoms: _419  and  _420
REMARK  180  A    between atoms: _419  and  _422
REMARK  181  A    between atoms: _422  and  _423
REMARK  182  A    between atoms: _423  and  _424
REMARK  183  A    between atoms: _424  and  _425
REMARK  184  A    between atoms: _434  and  _436
REMARK  185  A    between atoms: _436  and  _437
REMARK  186  A    between atoms: _436  and  _439
REMARK  187  A    between atoms: _439  and  _440
REMARK  188  A    between atoms: _443  and  _445
REMARK  189  A    between atoms: _445  and  _446
REMARK  190  A    between atoms: _445  and  _448
REMARK  191  A    between atoms: _448  and  _449
REMARK  192  A    between atoms: _452  and  _454
REMARK  193  A    between atoms: _454  and  _455
REMARK  194  A    between atoms: _454  and  _457
REMARK  195  A    between atoms: _457  and  _458
REMARK  196  A    between atoms: _458  and  _459
REMARK  197  A    between atoms: _459  and  _460
REMARK  198  A    between atoms: _469  and  _471
REMARK  199  A    between atoms: _471  and  _472
REMARK  200  A    between atoms: _471  and  _474
REMARK  201  A    between atoms: _474  and  _475
REMARK  202  A    between atoms: _480  and  _482
REMARK  203  A    between atoms: _482  and  _483
REMARK  204  A    between atoms: _482  and  _485
REMARK  205  A    between atoms: _485  and  _486
REMARK  206  A    between atoms: _489  and  _491
REMARK  207  A    between atoms: _491  and  _492
REMARK  208  A    between atoms: _491  and  _494
REMARK  209  A    between atoms: _494  and  _495
REMARK  210  A    between atoms: _498  and  _500
REMARK  211  A    between atoms: _500  and  _501
REMARK  212  A    between atoms: _500  and  _503
REMARK  213  A    between atoms: _503  and  _504
REMARK  214  A    between atoms: _507  and  _509
REMARK  215  A    between atoms: _509  and  _510
REMARK  216  A    between atoms: _509  and  _512
REMARK  217  A    between atoms: _512  and  _513
REMARK  218  A    between atoms: _515  and  _517
REMARK  219  A    between atoms: _517  and  _518
REMARK  220  A    between atoms: _517  and  _520
REMARK  221  A    between atoms: _520  and  _521
REMARK  222  A    between atoms: _521  and  _522
REMARK  223  A    between atoms: _522  and  _523
REMARK  224  A    between atoms: _523  and  _524
REMARK  225  A    between atoms: _528  and  _530
REMARK  226  A    between atoms: _530  and  _531
REMARK  227  A    between atoms: _530  and  _533
REMARK  228  A    between atoms: _533  and  _534
REMARK  229  A    between atoms: _537  and  _539
REMARK  230  A    between atoms: _539  and  _540
REMARK  231  A    between atoms: _539  and  _542
REMARK  232  A    between atoms: _544  and  _546
REMARK  233  A    between atoms: _546  and  _547
REMARK  234  A    between atoms: _546  and  _549
REMARK  235  A    between atoms: _549  and  _550
REMARK  236  A    between atoms: _553  and  _555
REMARK  237  A    between atoms: _555  and  _556
REMARK  238  A    between atoms: _555  and  _558
REMARK  239  A    between atoms: _558  and  _559
REMARK  240  A    between atoms: _565  and  _567
REMARK  241  A    between atoms: _567  and  _568
REMARK  242  A    between atoms: _570  and  _572
REMARK  243  A    between atoms: _572  and  _573
REMARK  244  A    between atoms: _572  and  _575
REMARK  245  A    between atoms: _575  and  _576
REMARK  246  A    between atoms: _579  and  _581
REMARK  247  A    between atoms: _581  and  _582
REMARK  248  A    between atoms: _585  and  _587
REMARK  249  A    between atoms: _587  and  _588
REMARK  250  A    between atoms: _587  and  _590
REMARK  251  A    between atoms: _590  and  _591
REMARK  252  A    between atoms: _591  and  _592
REMARK  253  A    between atoms: _592  and  _593
REMARK                            x       y       z     vdW  Elec       q    Type
REMARK                         _______ _______ _______ _____ _____    ______ ____
ROOT
ATOM      1  O   HOH     1     -29.775 -10.549  -4.735  0.00  0.00    +0.000 OA
ENDROOT
TORSDOF 0
REMARK  Name = ../refined-set-2016/4asd/4asd_pocket.pdb
REMARK  253 active torsions:
REMARK  status: ('A' for Active; 'I' for Inactive)
REMARK    1  A    between atoms: _1  and  _3
REMARK    2  A    between atoms: _3  and  _4
REMARK    3  A    between atoms: _3  and  _6
REMARK    4  A    between atoms: _6  and  _7
REMARK    5  A    between atoms: _10  and  _12
REMARK    6  A    between atoms: _12  and  _13
REMARK    7  A    between atoms: _12  and  _15
REMARK    8  A    between atoms: _15  and  _16
REMARK    9  A    between atoms: _19  and  _21
REMARK   10  A    between atoms: _21  and  _22
REMARK   11  A    between atoms: _21  and  _24
REMARK   12  A    between atoms: _24  and  _25
REMARK   13  A    between atoms: _25  and  _26
REMARK   14  A    between atoms: _26  and  _27
REMARK   15  A    between atoms: _27  and  _28
REMARK   16  A    between atoms: _33  and  _34
REMARK   17  A    between atoms: _39  and  _41
REMARK   18  A    between atoms: _41  and  _42
REMARK   19  A    between atoms: _41  and  _44
REMARK   20  A    between atoms: _44  and  _45
REMARK   21  A    between atoms: _48  and  _50
REMARK   22  A    between atoms: _50  and  _51
REMARK   23  A    between atoms: _53  and  _55
REMARK   24  A    between atoms: _55  and  _56
REMARK   25  A    between atoms: _55  and  _58
REMARK   26  A    between atoms: _58  and  _59
REMARK   27  A    between atoms: _59  and  _60
REMARK   28  A    between atoms: _65  and  _67
REMARK   29  A    between atoms: _67  and  _68
REMARK   30  A    between atoms: _67  and  _70
REMARK   31  A    between atoms: _73  and  _75
REMARK   32  A    between atoms: _75  and  _76
REMARK   33  A    between atoms: _75  and  _78
REMARK   34  A    between atoms: _78  and  _79
REMARK   35  A    between atoms: _82  and  _84
REMARK   36  A    between atoms: _84  and  _85
REMARK   37  A    between atoms: _84  and  _87
REMARK   38  A    between atoms: _87  and  _88
REMARK   39  A    between atoms: _88  and  _89
REMARK   40  A    between atoms: _92  and  _94
REMARK   41  A    between atoms: _94  and  _95
REMARK   42  A    between atoms: _94  and  _97
REMARK   43  A    between atoms: _97  and  _98
REMARK   44  A    between atoms: _101  and  _103
REMARK   45  A    between atoms: _103  and  _104
REMARK   46  A    between atoms: _103  and  _106
REMARK   47  A    between atoms: _109  and  _111
REMARK   48  A    between atoms: _111  and  _112
REMARK   49  A    between atoms: _115  and  _117
REMARK   50  A    between atoms: _117  and  _118
REMARK   51  A    between atoms: _117  and  _120
REMARK   52  A    between atoms: _123  and  _125
REMARK   53  A    between atoms: _125  and  _126
REMARK   54  A    between atoms: _125  and  _128
REMARK   55  A    between atoms: _128  and  _129
REMARK   56  A    between atoms: _129  and  _130
REMARK   57  A    between atoms: _130  and  _131
REMARK   58  A    between atoms: _131  and  _132
REMARK   59  A    between atoms: _136  and  _138
REMARK   60  A    between atoms: _138  and  _139
REMARK   61  A    between atoms: _138  and  _141
REMARK   62  A    between atoms: _141  and  _142
REMARK   63  A    between atoms: _142  and  _143
REMARK   64  A    between atoms: _145  and  _147
REMARK   65  A    between atoms: _147  and  _148
REMARK   66  A    between atoms: _147  and  _150
REMARK   67  A    between atoms: _150  and  _151
REMARK   68  A    between atoms: _154  and  _156
REMARK   69  A    between atoms: _156  and  _157
REMARK   70  A    between atoms: _156  and  _159
REMARK   71  A    between atoms: _159  and  _160
REMARK   72  A    between atoms: _162  and  _164
REMARK   73  A    between atoms: _164  and  _165
REMARK   74  A    between atoms: _164  and  _167
REMARK   75  A    between atoms: _167  and  _168
REMARK   76  A    between atoms: _168  and  _169
REMARK   77  A    between atoms: _172  and  _174
REMARK   78  A    between atoms: _174  and  _175
REMARK   79  A    between atoms: _174  and  _177
REMARK   80  A    between atoms: _177  and  _178
REMARK   81  A    between atoms: _181  and  _183
REMARK   82  A    between atoms: _183  and  _184
REMARK   83  A    between atoms: _183  and  _186
REMARK   84  A    between atoms: _186  and  _187
REMARK   85  A    between atoms: _190  and  _192
REMARK   86  A    between atoms: _192  and  _193
REMARK   87  A    between atoms: _192  and  _195
REMARK   88  A    between atoms: _195  and  _196
REMARK   89  A    between atoms: _199  and  _201
REMARK   90  A    between atoms: _201  and  _202
REMARK   91  A    between atoms: _201  and  _204
REMARK   92  A    between atoms: _204  and  _205
REMARK   93  A    between atoms: _208  and  _210
REMARK   94  A    between atoms: _210  and  _211
REMARK   95  A    between atoms: _213  and  _215
REMARK   96  A    between atoms: _215  and  _216
REMARK   97  A    between atoms: _215  and  _218
REMARK   98  A    between atoms: _218  and  _219
REMARK   99  A    between atoms: _224  and  _226
REMARK  100  A    between atoms: _226  and  _227
REMARK  101  A    between atoms: _226  and  _229
REMARK  102  A    between atoms: _232  and  _234
REMARK  103  A    between atoms: _234  and  _235
REMARK  104  A    between atoms: _234  and  _237
REMARK  105  A    between atoms: _240  and  _242
REMARK  106  A    between atoms: _242  and  _243
REMARK  107  A    between atoms: _242  and  _245
REMARK  108  A    between atoms: _245  and  _246
REMARK  109  A    between atoms: _251  and  _253
REMARK  110  A    between atoms: _253  and  _254
REMARK  111  A    between atoms: _253  and  _256
REMARK  112  A    between atoms: _256  and  _257
REMARK  113  A    between atoms: _260  and  _262
REMARK  114  A    between atoms: _262  and  _263
REMARK  115  A    between atoms: _262  and  _265
REMARK  116  A    between atoms: _268  and  _270
REMARK  117  A    between atoms: _270  and  _271
REMARK  118  A    between atoms: _270  and  _273
REMARK  119  A    between atoms: _273  and  _274
REMARK  120  A    between atoms: _277  and  _279
REMARK  121  A    between atoms: _279  and  _280
REMARK  122  A    between atoms: _279  and  _282
REMARK  123  A    between atoms: _285  and  _287
REMARK  124  A    between atoms: _287  and  _288
REMARK  125  A    between atoms: _287  and  _290
REMARK  126  A    between atoms: _290  and  _291
REMARK  127  A    between atoms: _291  and  _292
REMARK  128  A    between atoms: _295  and  _297
REMARK  129  A    between atoms: _297  and  _298
REMARK  130  A    between atoms: _297  and  _300
REMARK  131  A    between atoms: _300  and  _301
REMARK  132  A    between atoms: _307  and  _309
REMARK  133  A    between atoms: _309  and  _310
REMARK  134  A    between atoms: _309  and  _312
REMARK  135  A    between atoms: _314  and  _316
REMARK  136  A    between atoms: _316  and  _317
REMARK  137  A    between atoms: _316  and  _319
REMARK  138  A    between atoms: _319  and  _320
REMARK  139  A    between atoms: _320  and  _321
REMARK  140  A    between atoms: _321  and  _322
REMARK  141  A    between atoms: _322  and  _323
REMARK  142  A    between atoms: _327  and  _329
REMARK  143  A    between atoms: _329  and  _330
REMARK  144  A    between atoms: _329  and  _332
REMARK  145  A    between atoms: _332  and  _333
REMARK  146  A    between atoms: _339  and  _341
REMARK  147  A    between atoms: _341  and  _342
REMARK  148  A    between atoms: _344  and  _346
REMARK  149  A    between atoms: _346  and  _347
REMARK  150  A    between atoms: _346  and  _349
REMARK  151  A    between atoms: _349  and  _350
REMARK  152  A    between atoms: _355  and  _357
REMARK  153  A    between atoms: _357  and  _358
REMARK  154  A    between atoms: _360  and  _362
REMARK  155  A    between atoms: _362  and  _363
REMARK  156  A    between atoms: _362  and  _365
REMARK  157  A    between atoms: _365  and  _366
REMARK  158  A    between atoms: _366  and  _367
REMARK  159  A    between atoms: _369  and  _371
REMARK  160  A    between atoms: _371  and  _372
REMARK  161  A    between atoms: _371  and  _374
REMARK  162  A    between atoms: _374  and  _375
REMARK  163  A    between atoms: _381  and  _383
REMARK  164  A    between atoms: _383  and  _384
REMARK  165  A    between atoms: _383  and  _386
REMARK  166  A    between atoms: _386  and  _387
REMARK  167  A    between atoms: _390  and  _392
REMARK  168  A    between atoms: _392  and  _393
REMARK  169  A    between atoms: _392  and  _395
REMARK  170  A    between atoms: _397  and  _399
REMARK  171  A    between atoms: _399  and  _400
REMARK  172  A    between atoms: _399  and  _402
REMARK  173  A    between atoms: _402  and  _403
REMARK  174  A    between atoms: _406  and  _408
REMARK  175  A    between atoms: _408  and  _409
REMARK  176  A    between atoms: _408  and  _411
REMARK  177  A    between atoms: _411  and  _412
REMARK  178  A    between atoms: _417  and  _419
REMARK  179  A    between atoms: _419  and  _420
REMARK  180  A    between atoms: _419  and  _422
REMARK  181  A    between atoms: _422  and  _423
REMARK  182  A    between atoms: _423  and  _424
REMARK  183  A    between atoms: _424  and  _425
REMARK  184  A    between atoms: _434  and  _436
REMARK  185  A    between atoms: _436  and  _437
REMARK  186  A    between atoms: _436  and  _439
REMARK  187  A    between atoms: _439  and  _440
REMARK  188  A    between atoms: _443  and  _445
REMARK  189  A    between atoms: _445  and  _446
REMARK  190  A    between atoms: _445  and  _448
REMARK  191  A    between atoms: _448  and  _449
REMARK  192  A    between atoms: _452  and  _454
REMARK  193  A    between atoms: _454  and  _455
REMARK  194  A    between atoms: _454  and  _457
REMARK  195  A    between atoms: _457  and  _458
REMARK  196  A    between atoms: _458  and  _459
REMARK  197  A    between atoms: _459  and  _460
REMARK  198  A    between atoms: _469  and  _471
REMARK  199  A    between atoms: _471  and  _472
REMARK  200  A    between atoms: _471  and  _474
REMARK  201  A    between atoms: _474  and  _475
REMARK  202  A    between atoms: _480  and  _482
REMARK  203  A    between atoms: _482  and  _483
REMARK  204  A    between atoms: _482  and  _485
REMARK  205  A    between atoms: _485  and  _486
REMARK  206  A    between atoms: _489  and  _491
REMARK  207  A    between atoms: _491  and  _492
REMARK  208  A    between atoms: _491  and  _494
REMARK  209  A    between atoms: _494  and  _495
REMARK  210  A    between atoms: _498  and  _500
REMARK  211  A    between atoms: _500  and  _501
REMARK  212  A    between atoms: _500  and  _503
REMARK  213  A    between atoms: _503  and  _504
REMARK  214  A    between atoms: _507  and  _509
REMARK  215  A    between atoms: _509  and  _510
REMARK  216  A    between atoms: _509  and  _512
REMARK  217  A    between atoms: _512  and  _513
REMARK  218  A    between atoms: _515  and  _517
REMARK  219  A    between atoms: _517  and  _518
REMARK  220  A    between atoms: _517  and  _520
REMARK  221  A    between atoms: _520  and  _521
REMARK  222  A    between atoms: _521  and  _522
REMARK  223  A    between atoms: _522  and  _523
REMARK  224  A    between atoms: _523  and  _524
REMARK  225  A    between atoms: _528  and  _530
REMARK  226  A    between atoms: _530  and  _531
REMARK  227  A    between atoms: _530  and  _533
REMARK  228  A    between atoms: _533  and  _534
REMARK  229  A    between atoms: _537  and  _539
REMARK  230  A    between atoms: _539  and  _540
REMARK  231  A    between atoms: _539  and  _542
REMARK  232  A    between atoms: _544  and  _546
REMARK  233  A    between atoms: _546  and  _547
REMARK  234  A    between atoms: _546  and  _549
REMARK  235  A    between atoms: _549  and  _550
REMARK  236  A    between atoms: _553  and  _555
REMARK  237  A    between atoms: _555  and  _556
REMARK  238  A    between atoms: _555  and  _558
REMARK  239  A    between atoms: _558  and  _559
REMARK  240  A    between atoms: _565  and  _567
REMARK  241  A    between atoms: _567  and  _568
REMARK  242  A    between atoms: _570  and  _572
REMARK  243  A    between atoms: _572  and  _573
REMARK  244  A    between atoms: _572  and  _575
REMARK  245  A    between atoms: _575  and  _576
REMARK  246  A    between atoms: _579  and  _581
REMARK  247  A    between atoms: _581  and  _582
REMARK  248  A    between atoms: _585  and  _587
REMARK  249  A    between atoms: _587  and  _588
REMARK  250  A    between atoms: _587  and  _590
REMARK  251  A    between atoms: _590  and  _591
REMARK  252  A    between atoms: _591  and  _592
REMARK  253  A    between atoms: _592  and  _593
REMARK                            x       y       z     vdW  Elec       q    Type
REMARK                         _______ _______ _______ _____ _____    ______ ____
ROOT
ATOM      1  O   HOH     1     -15.252   1.137 -16.507  0.00  0.00    +0.000 OA
ENDROOT
TORSDOF 0
REMARK  Name = ../refined-set-2016/4asd/4asd_pocket.pdb
REMARK  253 active torsions:
REMARK  status: ('A' for Active; 'I' for Inactive)
REMARK    1  A    between atoms: _1  and  _3
REMARK    2  A    between atoms: _3  and  _4
REMARK    3  A    between atoms: _3  and  _6
REMARK    4  A    between atoms: _6  and  _7
REMARK    5  A    between atoms: _10  and  _12
REMARK    6  A    between atoms: _12  and  _13
REMARK    7  A    between atoms: _12  and  _15
REMARK    8  A    between atoms: _15  and  _16
REMARK    9  A    between atoms: _19  and  _21
REMARK   10  A    between atoms: _21  and  _22
REMARK   11  A    between atoms: _21  and  _24
REMARK   12  A    between atoms: _24  and  _25
REMARK   13  A    between atoms: _25  and  _26
REMARK   14  A    between atoms: _26  and  _27
REMARK   15  A    between atoms: _27  and  _28
REMARK   16  A    between atoms: _33  and  _34
REMARK   17  A    between atoms: _39  and  _41
REMARK   18  A    between atoms: _41  and  _42
REMARK   19  A    between atoms: _41  and  _44
REMARK   20  A    between atoms: _44  and  _45
REMARK   21  A    between atoms: _48  and  _50
REMARK   22  A    between atoms: _50  and  _51
REMARK   23  A    between atoms: _53  and  _55
REMARK   24  A    between atoms: _55  and  _56
REMARK   25  A    between atoms: _55  and  _58
REMARK   26  A    between atoms: _58  and  _59
REMARK   27  A    between atoms: _59  and  _60
REMARK   28  A    between atoms: _65  and  _67
REMARK   29  A    between atoms: _67  and  _68
REMARK   30  A    between atoms: _67  and  _70
REMARK   31  A    between atoms: _73  and  _75
REMARK   32  A    between atoms: _75  and  _76
REMARK   33  A    between atoms: _75  and  _78
REMARK   34  A    between atoms: _78  and  _79
REMARK   35  A    between atoms: _82  and  _84
REMARK   36  A    between atoms: _84  and  _85
REMARK   37  A    between atoms: _84  and  _87
REMARK   38  A    between atoms: _87  and  _88
REMARK   39  A    between atoms: _88  and  _89
REMARK   40  A    between atoms: _92  and  _94
REMARK   41  A    between atoms: _94  and  _95
REMARK   42  A    between atoms: _94  and  _97
REMARK   43  A    between atoms: _97  and  _98
REMARK   44  A    between atoms: _101  and  _103
REMARK   45  A    between atoms: _103  and  _104
REMARK   46  A    between atoms: _103  and  _106
REMARK   47  A    between atoms: _109  and  _111
REMARK   48  A    between atoms: _111  and  _112
REMARK   49  A    between atoms: _115  and  _117
REMARK   50  A    between atoms: _117  and  _118
REMARK   51  A    between atoms: _117  and  _120
REMARK   52  A    between atoms: _123  and  _125
REMARK   53  A    between atoms: _125  and  _126
REMARK   54  A    between atoms: _125  and  _128
REMARK   55  A    between atoms: _128  and  _129
REMARK   56  A    between atoms: _129  and  _130
REMARK   57  A    between atoms: _130  and  _131
REMARK   58  A    between atoms: _131  and  _132
REMARK   59  A    between atoms: _136  and  _138
REMARK   60  A    between atoms: _138  and  _139
REMARK   61  A    between atoms: _138  and  _141
REMARK   62  A    between atoms: _141  and  _142
REMARK   63  A    between atoms: _142  and  _143
REMARK   64  A    between atoms: _145  and  _147
REMARK   65  A    between atoms: _147  and  _148
REMARK   66  A    between atoms: _147  and  _150
REMARK   67  A    between atoms: _150  and  _151
REMARK   68  A    between atoms: _154  and  _156
REMARK   69  A    between atoms: _156  and  _157
REMARK   70  A    between atoms: _156  and  _159
REMARK   71  A    between atoms: _159  and  _160
REMARK   72  A    between atoms: _162  and  _164
REMARK   73  A    between atoms: _164  and  _165
REMARK   74  A    between atoms: _164  and  _167
REMARK   75  A    between atoms: _167  and  _168
REMARK   76  A    between atoms: _168  and  _169
REMARK   77  A    between atoms: _172  and  _174
REMARK   78  A    between atoms: _174  and  _175
REMARK   79  A    between atoms: _174  and  _177
REMARK   80  A    between atoms: _177  and  _178
REMARK   81  A    between atoms: _181  and  _183
REMARK   82  A    between atoms: _183  and  _184
REMARK   83  A    between atoms: _183  and  _186
REMARK   84  A    between atoms: _186  and  _187
REMARK   85  A    between atoms: _190  and  _192
REMARK   86  A    between atoms: _192  and  _193
REMARK   87  A    between atoms: _192  and  _195
REMARK   88  A    between atoms: _195  and  _196
REMARK   89  A    between atoms: _199  and  _201
REMARK   90  A    between atoms: _201  and  _202
REMARK   91  A    between atoms: _201  and  _204
REMARK   92  A    between atoms: _204  and  _205
REMARK   93  A    between atoms: _208  and  _210
REMARK   94  A    between atoms: _210  and  _211
REMARK   95  A    between atoms: _213  and  _215
REMARK   96  A    between atoms: _215  and  _216
REMARK   97  A    between atoms: _215  and  _218
REMARK   98  A    between atoms: _218  and  _219
REMARK   99  A    between atoms: _224  and  _226
REMARK  100  A    between atoms: _226  and  _227
REMARK  101  A    between atoms: _226  and  _229
REMARK  102  A    between atoms: _232  and  _234
REMARK  103  A    between atoms: _234  and  _235
REMARK  104  A    between atoms: _234  and  _237
REMARK  105  A    between atoms: _240  and  _242
REMARK  106  A    between atoms: _242  and  _243
REMARK  107  A    between atoms: _242  and  _245
REMARK  108  A    between atoms: _245  and  _246
REMARK  109  A    between atoms: _251  and  _253
REMARK  110  A    between atoms: _253  and  _254
REMARK  111  A    between atoms: _253  and  _256
REMARK  112  A    between atoms: _256  and  _257
REMARK  113  A    between atoms: _260  and  _262
REMARK  114  A    between atoms: _262  and  _263
REMARK  115  A    between atoms: _262  and  _265
REMARK  116  A    between atoms: _268  and  _270
REMARK  117  A    between atoms: _270  and  _271
REMARK  118  A    between atoms: _270  and  _273
REMARK  119  A    between atoms: _273  and  _274
REMARK  120  A    between atoms: _277  and  _279
REMARK  121  A    between atoms: _279  and  _280
REMARK  122  A    between atoms: _279  and  _282
REMARK  123  A    between atoms: _285  and  _287
REMARK  124  A    between atoms: _287  and  _288
REMARK  125  A    between atoms: _287  and  _290
REMARK  126  A    between atoms: _290  and  _291
REMARK  127  A    between atoms: _291  and  _292
REMARK  128  A    between atoms: _295  and  _297
REMARK  129  A    between atoms: _297  and  _298
REMARK  130  A    between atoms: _297  and  _300
REMARK  131  A    between atoms: _300  and  _301
REMARK  132  A    between atoms: _307  and  _309
REMARK  133  A    between atoms: _309  and  _310
REMARK  134  A    between atoms: _309  and  _312
REMARK  135  A    between atoms: _314  and  _316
REMARK  136  A    between atoms: _316  and  _317
REMARK  137  A    between atoms: _316  and  _319
REMARK  138  A    between atoms: _319  and  _320
REMARK  139  A    between atoms: _320  and  _321
REMARK  140  A    between atoms: _321  and  _322
REMARK  141  A    between atoms: _322  and  _323
REMARK  142  A    between atoms: _327  and  _329
REMARK  143  A    between atoms: _329  and  _330
REMARK  144  A    between atoms: _329  and  _332
REMARK  145  A    between atoms: _332  and  _333
REMARK  146  A    between atoms: _339  and  _341
REMARK  147  A    between atoms: _341  and  _342
REMARK  148  A    between atoms: _344  and  _346
REMARK  149  A    between atoms: _346  and  _347
REMARK  150  A    between atoms: _346  and  _349
REMARK  151  A    between atoms: _349  and  _350
REMARK  152  A    between atoms: _355  and  _357
REMARK  153  A    between atoms: _357  and  _358
REMARK  154  A    between atoms: _360  and  _362
REMARK  155  A    between atoms: _362  and  _363
REMARK  156  A    between atoms: _362  and  _365
REMARK  157  A    between atoms: _365  and  _366
REMARK  158  A    between atoms: _366  and  _367
REMARK  159  A    between atoms: _369  and  _371
REMARK  160  A    between atoms: _371  and  _372
REMARK  161  A    between atoms: _371  and  _374
REMARK  162  A    between atoms: _374  and  _375
REMARK  163  A    between atoms: _381  and  _383
REMARK  164  A    between atoms: _383  and  _384
REMARK  165  A    between atoms: _383  and  _386
REMARK  166  A    between atoms: _386  and  _387
REMARK  167  A    between atoms: _390  and  _392
REMARK  168  A    between atoms: _392  and  _393
REMARK  169  A    between atoms: _392  and  _395
REMARK  170  A    between atoms: _397  and  _399
REMARK  171  A    between atoms: _399  and  _400
REMARK  172  A    between atoms: _399  and  _402
REMARK  173  A    between atoms: _402  and  _403
REMARK  174  A    between atoms: _406  and  _408
REMARK  175  A    between atoms: _408  and  _409
REMARK  176  A    between atoms: _408  and  _411
REMARK  177  A    between atoms: _411  and  _412
REMARK  178  A    between atoms: _417  and  _419
REMARK  179  A    between atoms: _419  and  _420
REMARK  180  A    between atoms: _419  and  _422
REMARK  181  A    between atoms: _422  and  _423
REMARK  182  A    between atoms: _423  and  _424
REMARK  183  A    between atoms: _424  and  _425
REMARK  184  A    between atoms: _434  and  _436
REMARK  185  A    between atoms: _436  and  _437
REMARK  186  A    between atoms: _436  and  _439
REMARK  187  A    between atoms: _439  and  _440
REMARK  188  A    between atoms: _443  and  _445
REMARK  189  A    between atoms: _445  and  _446
REMARK  190  A    between atoms: _445  and  _448
REMARK  191  A    between atoms: _448  and  _449
REMARK  192  A    between atoms: _452  and  _454
REMARK  193  A    between atoms: _454  and  _455
REMARK  194  A    between atoms: _454  and  _457
REMARK  195  A    between atoms: _457  and  _458
REMARK  196  A    between atoms: _458  and  _459
REMARK  197  A    between atoms: _459  and  _460
REMARK  198  A    between atoms: _469  and  _471
REMARK  199  A    between atoms: _471  and  _472
REMARK  200  A    between atoms: _471  and  _474
REMARK  201  A    between atoms: _474  and  _475
REMARK  202  A    between atoms: _480  and  _482
REMARK  203  A    between atoms: _482  and  _483
REMARK  204  A    between atoms: _482  and  _485
REMARK  205  A    between atoms: _485  and  _486
REMARK  206  A    between atoms: _489  and  _491
REMARK  207  A    between atoms: _491  and  _492
REMARK  208  A    between atoms: _491  and  _494
REMARK  209  A    between atoms: _494  and  _495
REMARK  210  A    between atoms: _498  and  _500
REMARK  211  A    between atoms: _500  and  _501
REMARK  212  A    between atoms: _500  and  _503
REMARK  213  A    between atoms: _503  and  _504
REMARK  214  A    between atoms: _507  and  _509
REMARK  215  A    between atoms: _509  and  _510
REMARK  216  A    between atoms: _509  and  _512
REMARK  217  A    between atoms: _512  and  _513
REMARK  218  A    between atoms: _515  and  _517
REMARK  219  A    between atoms: _517  and  _518
REMARK  220  A    between atoms: _517  and  _520
REMARK  221  A    between atoms: _520  and  _521
REMARK  222  A    between atoms: _521  and  _522
REMARK  223  A    between atoms: _522  and  _523
REMARK  224  A    between atoms: _523  and  _524
REMARK  225  A    between atoms: _528  and  _530
REMARK  226  A    between atoms: _530  and  _531
REMARK  227  A    between atoms: _530  and  _533
REMARK  228  A    between atoms: _533  and  _534
REMARK  229  A    between atoms: _537  and  _539
REMARK  230  A    between atoms: _539  and  _540
REMARK  231  A    between atoms: _539  and  _542
REMARK  232  A    between atoms: _544  and  _546
REMARK  233  A    between atoms: _546  and  _547
REMARK  234  A    between atoms: _546  and  _549
REMARK  235  A    between atoms: _549  and  _550
REMARK  236  A    between atoms: _553  and  _555
REMARK  237  A    between atoms: _555  and  _556
REMARK  238  A    between atoms: _555  and  _558
REMARK  239  A    between atoms: _558  and  _559
REMARK  240  A    between atoms: _565  and  _567
REMARK  241  A    between atoms: _567  and  _568
REMARK  242  A    between atoms: _570  and  _572
REMARK  243  A    between atoms: _572  and  _573
REMARK  244  A    between atoms: _572  and  _575
REMARK  245  A    between atoms: _575  and  _576
REMARK  246  A    between atoms: _579  and  _581
REMARK  247  A    between atoms: _581  and  _582
REMARK  248  A    between atoms: _585  and  _587
REMARK  249  A    between atoms: _587  and  _588
REMARK  250  A    between atoms: _587  and  _590
REMARK  251  A    between atoms: _590  and  _591
REMARK  252  A    between atoms: _591  and  _592
REMARK  253  A    between atoms: _592  and  _593
REMARK                            x       y       z     vdW  Elec       q    Type
REMARK                         _______ _______ _______ _____ _____    ______ ____
ROOT
ATOM      1  O   HOH     1     -11.996  -1.616 -15.875  0.00  0.00    +0.000 OA
ENDROOT
TORSDOF 0
REMARK  Name = ../refined-set-2016/4asd/4asd_pocket.pdb
REMARK  253 active torsions:
REMARK  status: ('A' for Active; 'I' for Inactive)
REMARK    1  A    between atoms: _1  and  _3
REMARK    2  A    between atoms: _3  and  _4
REMARK    3  A    between atoms: _3  and  _6
REMARK    4  A    between atoms: _6  and  _7
REMARK    5  A    between atoms: _10  and  _12
REMARK    6  A    between atoms: _12  and  _13
REMARK    7  A    between atoms: _12  and  _15
REMARK    8  A    between atoms: _15  and  _16
REMARK    9  A    between atoms: _19  and  _21
REMARK   10  A    between atoms: _21  and  _22
REMARK   11  A    between atoms: _21  and  _24
REMARK   12  A    between atoms: _24  and  _25
REMARK   13  A    between atoms: _25  and  _26
REMARK   14  A    between atoms: _26  and  _27
REMARK   15  A    between atoms: _27  and  _28
REMARK   16  A    between atoms: _33  and  _34
REMARK   17  A    between atoms: _39  and  _41
REMARK   18  A    between atoms: _41  and  _42
REMARK   19  A    between atoms: _41  and  _44
REMARK   20  A    between atoms: _44  and  _45
REMARK   21  A    between atoms: _48  and  _50
REMARK   22  A    between atoms: _50  and  _51
REMARK   23  A    between atoms: _53  and  _55
REMARK   24  A    between atoms: _55  and  _56
REMARK   25  A    between atoms: _55  and  _58
REMARK   26  A    between atoms: _58  and  _59
REMARK   27  A    between atoms: _59  and  _60
REMARK   28  A    between atoms: _65  and  _67
REMARK   29  A    between atoms: _67  and  _68
REMARK   30  A    between atoms: _67  and  _70
REMARK   31  A    between atoms: _73  and  _75
REMARK   32  A    between atoms: _75  and  _76
REMARK   33  A    between atoms: _75  and  _78
REMARK   34  A    between atoms: _78  and  _79
REMARK   35  A    between atoms: _82  and  _84
REMARK   36  A    between atoms: _84  and  _85
REMARK   37  A    between atoms: _84  and  _87
REMARK   38  A    between atoms: _87  and  _88
REMARK   39  A    between atoms: _88  and  _89
REMARK   40  A    between atoms: _92  and  _94
REMARK   41  A    between atoms: _94  and  _95
REMARK   42  A    between atoms: _94  and  _97
REMARK   43  A    between atoms: _97  and  _98
REMARK   44  A    between atoms: _101  and  _103
REMARK   45  A    between atoms: _103  and  _104
REMARK   46  A    between atoms: _103  and  _106
REMARK   47  A    between atoms: _109  and  _111
REMARK   48  A    between atoms: _111  and  _112
REMARK   49  A    between atoms: _115  and  _117
REMARK   50  A    between atoms: _117  and  _118
REMARK   51  A    between atoms: _117  and  _120
REMARK   52  A    between atoms: _123  and  _125
REMARK   53  A    between atoms: _125  and  _126
REMARK   54  A    between atoms: _125  and  _128
REMARK   55  A    between atoms: _128  and  _129
REMARK   56  A    between atoms: _129  and  _130
REMARK   57  A    between atoms: _130  and  _131
REMARK   58  A    between atoms: _131  and  _132
REMARK   59  A    between atoms: _136  and  _138
REMARK   60  A    between atoms: _138  and  _139
REMARK   61  A    between atoms: _138  and  _141
REMARK   62  A    between atoms: _141  and  _142
REMARK   63  A    between atoms: _142  and  _143
REMARK   64  A    between atoms: _145  and  _147
REMARK   65  A    between atoms: _147  and  _148
REMARK   66  A    between atoms: _147  and  _150
REMARK   67  A    between atoms: _150  and  _151
REMARK   68  A    between atoms: _154  and  _156
REMARK   69  A    between atoms: _156  and  _157
REMARK   70  A    between atoms: _156  and  _159
REMARK   71  A    between atoms: _159  and  _160
REMARK   72  A    between atoms: _162  and  _164
REMARK   73  A    between atoms: _164  and  _165
REMARK   74  A    between atoms: _164  and  _167
REMARK   75  A    between atoms: _167  and  _168
REMARK   76  A    between atoms: _168  and  _169
REMARK   77  A    between atoms: _172  and  _174
REMARK   78  A    between atoms: _174  and  _175
REMARK   79  A    between atoms: _174  and  _177
REMARK   80  A    between atoms: _177  and  _178
REMARK   81  A    between atoms: _181  and  _183
REMARK   82  A    between atoms: _183  and  _184
REMARK   83  A    between atoms: _183  and  _186
REMARK   84  A    between atoms: _186  and  _187
REMARK   85  A    between atoms: _190  and  _192
REMARK   86  A    between atoms: _192  and  _193
REMARK   87  A    between atoms: _192  and  _195
REMARK   88  A    between atoms: _195  and  _196
REMARK   89  A    between atoms: _199  and  _201
REMARK   90  A    between atoms: _201  and  _202
REMARK   91  A    between atoms: _201  and  _204
REMARK   92  A    between atoms: _204  and  _205
REMARK   93  A    between atoms: _208  and  _210
REMARK   94  A    between atoms: _210  and  _211
REMARK   95  A    between atoms: _213  and  _215
REMARK   96  A    between atoms: _215  and  _216
REMARK   97  A    between atoms: _215  and  _218
REMARK   98  A    between atoms: _218  and  _219
REMARK   99  A    between atoms: _224  and  _226
REMARK  100  A    between atoms: _226  and  _227
REMARK  101  A    between atoms: _226  and  _229
REMARK  102  A    between atoms: _232  and  _234
REMARK  103  A    between atoms: _234  and  _235
REMARK  104  A    between atoms: _234  and  _237
REMARK  105  A    between atoms: _240  and  _242
REMARK  106  A    between atoms: _242  and  _243
REMARK  107  A    between atoms: _242  and  _245
REMARK  108  A    between atoms: _245  and  _246
REMARK  109  A    between atoms: _251  and  _253
REMARK  110  A    between atoms: _253  and  _254
REMARK  111  A    between atoms: _253  and  _256
REMARK  112  A    between atoms: _256  and  _257
REMARK  113  A    between atoms: _260  and  _262
REMARK  114  A    between atoms: _262  and  _263
REMARK  115  A    between atoms: _262  and  _265
REMARK  116  A    between atoms: _268  and  _270
REMARK  117  A    between atoms: _270  and  _271
REMARK  118  A    between atoms: _270  and  _273
REMARK  119  A    between atoms: _273  and  _274
REMARK  120  A    between atoms: _277  and  _279
REMARK  121  A    between atoms: _279  and  _280
REMARK  122  A    between atoms: _279  and  _282
REMARK  123  A    between atoms: _285  and  _287
REMARK  124  A    between atoms: _287  and  _288
REMARK  125  A    between atoms: _287  and  _290
REMARK  126  A    between atoms: _290  and  _291
REMARK  127  A    between atoms: _291  and  _292
REMARK  128  A    between atoms: _295  and  _297
REMARK  129  A    between atoms: _297  and  _298
REMARK  130  A    between atoms: _297  and  _300
REMARK  131  A    between atoms: _300  and  _301
REMARK  132  A    between atoms: _307  and  _309
REMARK  133  A    between atoms: _309  and  _310
REMARK  134  A    between atoms: _309  and  _312
REMARK  135  A    between atoms: _314  and  _316
REMARK  136  A    between atoms: _316  and  _317
REMARK  137  A    between atoms: _316  and  _319
REMARK  138  A    between atoms: _319  and  _320
REMARK  139  A    between atoms: _320  and  _321
REMARK  140  A    between atoms: _321  and  _322
REMARK  141  A    between atoms: _322  and  _323
REMARK  142  A    between atoms: _327  and  _329
REMARK  143  A    between atoms: _329  and  _330
REMARK  144  A    between atoms: _329  and  _332
REMARK  145  A    between atoms: _332  and  _333
REMARK  146  A    between atoms: _339  and  _341
REMARK  147  A    between atoms: _341  and  _342
REMARK  148  A    between atoms: _344  and  _346
REMARK  149  A    between atoms: _346  and  _347
REMARK  150  A    between atoms: _346  and  _349
REMARK  151  A    between atoms: _349  and  _350
REMARK  152  A    between atoms: _355  and  _357
REMARK  153  A    between atoms: _357  and  _358
REMARK  154  A    between atoms: _360  and  _362
REMARK  155  A    between atoms: _362  and  _363
REMARK  156  A    between atoms: _362  and  _365
REMARK  157  A    between atoms: _365  and  _366
REMARK  158  A    between atoms: _366  and  _367
REMARK  159  A    between atoms: _369  and  _371
REMARK  160  A    between atoms: _371  and  _372
REMARK  161  A    between atoms: _371  and  _374
REMARK  162  A    between atoms: _374  and  _375
REMARK  163  A    between atoms: _381  and  _383
REMARK  164  A    between atoms: _383  and  _384
REMARK  165  A    between atoms: _383  and  _386
REMARK  166  A    between atoms: _386  and  _387
REMARK  167  A    between atoms: _390  and  _392
REMARK  168  A    between atoms: _392  and  _393
REMARK  169  A    between atoms: _392  and  _395
REMARK  170  A    between atoms: _397  and  _399
REMARK  171  A    between atoms: _399  and  _400
REMARK  172  A    between atoms: _399  and  _402
REMARK  173  A    between atoms: _402  and  _403
REMARK  174  A    between atoms: _406  and  _408
REMARK  175  A    between atoms: _408  and  _409
REMARK  176  A    between atoms: _408  and  _411
REMARK  177  A    between atoms: _411  and  _412
REMARK  178  A    between atoms: _417  and  _419
REMARK  179  A    between atoms: _419  and  _420
REMARK  180  A    between atoms: _419  and  _422
REMARK  181  A    between atoms: _422  and  _423
REMARK  182  A    between atoms: _423  and  _424
REMARK  183  A    between atoms: _424  and  _425
REMARK  184  A    between atoms: _434  and  _436
REMARK  185  A    between atoms: _436  and  _437
REMARK  186  A    between atoms: _436  and  _439
REMARK  187  A    between atoms: _439  and  _440
REMARK  188  A    between atoms: _443  and  _445
REMARK  189  A    between atoms: _445  and  _446
REMARK  190  A    between atoms: _445  and  _448
REMARK  191  A    between atoms: _448  and  _449
REMARK  192  A    between atoms: _452  and  _454
REMARK  193  A    between atoms: _454  and  _455
REMARK  194  A    between atoms: _454  and  _457
REMARK  195  A    between atoms: _457  and  _458
REMARK  196  A    between atoms: _458  and  _459
REMARK  197  A    between atoms: _459  and  _460
REMARK  198  A    between atoms: _469  and  _471
REMARK  199  A    between atoms: _471  and  _472
REMARK  200  A    between atoms: _471  and  _474
REMARK  201  A    between atoms: _474  and  _475
REMARK  202  A    between atoms: _480  and  _482
REMARK  203  A    between atoms: _482  and  _483
REMARK  204  A    between atoms: _482  and  _485
REMARK  205  A    between atoms: _485  and  _486
REMARK  206  A    between atoms: _489  and  _491
REMARK  207  A    between atoms: _491  and  _492
REMARK  208  A    between atoms: _491  and  _494
REMARK  209  A    between atoms: _494  and  _495
REMARK  210  A    between atoms: _498  and  _500
REMARK  211  A    between atoms: _500  and  _501
REMARK  212  A    between atoms: _500  and  _503
REMARK  213  A    between atoms: _503  and  _504
REMARK  214  A    between atoms: _507  and  _509
REMARK  215  A    between atoms: _509  and  _510
REMARK  216  A    between atoms: _509  and  _512
REMARK  217  A    between atoms: _512  and  _513
REMARK  218  A    between atoms: _515  and  _517
REMARK  219  A    between atoms: _517  and  _518
REMARK  220  A    between atoms: _517  and  _520
REMARK  221  A    between atoms: _520  and  _521
REMARK  222  A    between atoms: _521  and  _522
REMARK  223  A    between atoms: _522  and  _523
REMARK  224  A    between atoms: _523  and  _524
REMARK  225  A    between atoms: _528  and  _530
REMARK  226  A    between atoms: _530  and  _531
REMARK  227  A    between atoms: _530  and  _533
REMARK  228  A    between atoms: _533  and  _534
REMARK  229  A    between atoms: _537  and  _539
REMARK  230  A    between atoms: _539  and  _540
REMARK  231  A    between atoms: _539  and  _542
REMARK  232  A    between atoms: _544  and  _546
REMARK  233  A    between atoms: _546  and  _547
REMARK  234  A    between atoms: _546  and  _549
REMARK  235  A    between atoms: _549  and  _550
REMARK  236  A    between atoms: _553  and  _555
REMARK  237  A    between atoms: _555  and  _556
REMARK  238  A    between atoms: _555  and  _558
REMARK  239  A    between atoms: _558  and  _559
REMARK  240  A    between atoms: _565  and  _567
REMARK  241  A    between atoms: _567  and  _568
REMARK  242  A    between atoms: _570  and  _572
REMARK  243  A    between atoms: _572  and  _573
REMARK  244  A    between atoms: _572  and  _575
REMARK  245  A    between atoms: _575  and  _576
REMARK  246  A    between atoms: _579  and  _581
REMARK  247  A    between atoms: _581  and  _582
REMARK  248  A    between atoms: _585  and  _587
REMARK  249  A    between atoms: _587  and  _588
REMARK  250  A    between atoms: _587  and  _590
REMARK  251  A    between atoms: _590  and  _591
REMARK  252  A    between atoms: _591  and  _592
REMARK  253  A    between atoms: _592  and  _593
REMARK                            x       y       z     vdW  Elec       q    Type
REMARK                         _______ _______ _______ _____ _____    ______ ____
ROOT
ATOM      1  O   HOH     1     -17.428   8.094 -21.976  0.00  0.00    +0.000 OA
ENDROOT
TORSDOF 0
REMARK  Name = ../refined-set-2016/4asd/4asd_pocket.pdb
REMARK  253 active torsions:
REMARK  status: ('A' for Active; 'I' for Inactive)
REMARK    1  A    between atoms: _1  and  _3
REMARK    2  A    between atoms: _3  and  _4
REMARK    3  A    between atoms: _3  and  _6
REMARK    4  A    between atoms: _6  and  _7
REMARK    5  A    between atoms: _10  and  _12
REMARK    6  A    between atoms: _12  and  _13
REMARK    7  A    between atoms: _12  and  _15
REMARK    8  A    between atoms: _15  and  _16
REMARK    9  A    between atoms: _19  and  _21
REMARK   10  A    between atoms: _21  and  _22
REMARK   11  A    between atoms: _21  and  _24
REMARK   12  A    between atoms: _24  and  _25
REMARK   13  A    between atoms: _25  and  _26
REMARK   14  A    between atoms: _26  and  _27
REMARK   15  A    between atoms: _27  and  _28
REMARK   16  A    between atoms: _33  and  _34
REMARK   17  A    between atoms: _39  and  _41
REMARK   18  A    between atoms: _41  and  _42
REMARK   19  A    between atoms: _41  and  _44
REMARK   20  A    between atoms: _44  and  _45
REMARK   21  A    between atoms: _48  and  _50
REMARK   22  A    between atoms: _50  and  _51
REMARK   23  A    between atoms: _53  and  _55
REMARK   24  A    between atoms: _55  and  _56
REMARK   25  A    between atoms: _55  and  _58
REMARK   26  A    between atoms: _58  and  _59
REMARK   27  A    between atoms: _59  and  _60
REMARK   28  A    between atoms: _65  and  _67
REMARK   29  A    between atoms: _67  and  _68
REMARK   30  A    between atoms: _67  and  _70
REMARK   31  A    between atoms: _73  and  _75
REMARK   32  A    between atoms: _75  and  _76
REMARK   33  A    between atoms: _75  and  _78
REMARK   34  A    between atoms: _78  and  _79
REMARK   35  A    between atoms: _82  and  _84
REMARK   36  A    between atoms: _84  and  _85
REMARK   37  A    between atoms: _84  and  _87
REMARK   38  A    between atoms: _87  and  _88
REMARK   39  A    between atoms: _88  and  _89
REMARK   40  A    between atoms: _92  and  _94
REMARK   41  A    between atoms: _94  and  _95
REMARK   42  A    between atoms: _94  and  _97
REMARK   43  A    between atoms: _97  and  _98
REMARK   44  A    between atoms: _101  and  _103
REMARK   45  A    between atoms: _103  and  _104
REMARK   46  A    between atoms: _103  and  _106
REMARK   47  A    between atoms: _109  and  _111
REMARK   48  A    between atoms: _111  and  _112
REMARK   49  A    between atoms: _115  and  _117
REMARK   50  A    between atoms: _117  and  _118
REMARK   51  A    between atoms: _117  and  _120
REMARK   52  A    between atoms: _123  and  _125
REMARK   53  A    between atoms: _125  and  _126
REMARK   54  A    between atoms: _125  and  _128
REMARK   55  A    between atoms: _128  and  _129
REMARK   56  A    between atoms: _129  and  _130
REMARK   57  A    between atoms: _130  and  _131
REMARK   58  A    between atoms: _131  and  _132
REMARK   59  A    between atoms: _136  and  _138
REMARK   60  A    between atoms: _138  and  _139
REMARK   61  A    between atoms: _138  and  _141
REMARK   62  A    between atoms: _141  and  _142
REMARK   63  A    between atoms: _142  and  _143
REMARK   64  A    between atoms: _145  and  _147
REMARK   65  A    between atoms: _147  and  _148
REMARK   66  A    between atoms: _147  and  _150
REMARK   67  A    between atoms: _150  and  _151
REMARK   68  A    between atoms: _154  and  _156
REMARK   69  A    between atoms: _156  and  _157
REMARK   70  A    between atoms: _156  and  _159
REMARK   71  A    between atoms: _159  and  _160
REMARK   72  A    between atoms: _162  and  _164
REMARK   73  A    between atoms: _164  and  _165
REMARK   74  A    between atoms: _164  and  _167
REMARK   75  A    between atoms: _167  and  _168
REMARK   76  A    between atoms: _168  and  _169
REMARK   77  A    between atoms: _172  and  _174
REMARK   78  A    between atoms: _174  and  _175
REMARK   79  A    between atoms: _174  and  _177
REMARK   80  A    between atoms: _177  and  _178
REMARK   81  A    between atoms: _181  and  _183
REMARK   82  A    between atoms: _183  and  _184
REMARK   83  A    between atoms: _183  and  _186
REMARK   84  A    between atoms: _186  and  _187
REMARK   85  A    between atoms: _190  and  _192
REMARK   86  A    between atoms: _192  and  _193
REMARK   87  A    between atoms: _192  and  _195
REMARK   88  A    between atoms: _195  and  _196
REMARK   89  A    between atoms: _199  and  _201
REMARK   90  A    between atoms: _201  and  _202
REMARK   91  A    between atoms: _201  and  _204
REMARK   92  A    between atoms: _204  and  _205
REMARK   93  A    between atoms: _208  and  _210
REMARK   94  A    between atoms: _210  and  _211
REMARK   95  A    between atoms: _213  and  _215
REMARK   96  A    between atoms: _215  and  _216
REMARK   97  A    between atoms: _215  and  _218
REMARK   98  A    between atoms: _218  and  _219
REMARK   99  A    between atoms: _224  and  _226
REMARK  100  A    between atoms: _226  and  _227
REMARK  101  A    between atoms: _226  and  _229
REMARK  102  A    between atoms: _232  and  _234
REMARK  103  A    between atoms: _234  and  _235
REMARK  104  A    between atoms: _234  and  _237
REMARK  105  A    between atoms: _240  and  _242
REMARK  106  A    between atoms: _242  and  _243
REMARK  107  A    between atoms: _242  and  _245
REMARK  108  A    between atoms: _245  and  _246
REMARK  109  A    between atoms: _251  and  _253
REMARK  110  A    between atoms: _253  and  _254
REMARK  111  A    between atoms: _253  and  _256
REMARK  112  A    between atoms: _256  and  _257
REMARK  113  A    between atoms: _260  and  _262
REMARK  114  A    between atoms: _262  and  _263
REMARK  115  A    between atoms: _262  and  _265
REMARK  116  A    between atoms: _268  and  _270
REMARK  117  A    between atoms: _270  and  _271
REMARK  118  A    between atoms: _270  and  _273
REMARK  119  A    between atoms: _273  and  _274
REMARK  120  A    between atoms: _277  and  _279
REMARK  121  A    between atoms: _279  and  _280
REMARK  122  A    between atoms: _279  and  _282
REMARK  123  A    between atoms: _285  and  _287
REMARK  124  A    between atoms: _287  and  _288
REMARK  125  A    between atoms: _287  and  _290
REMARK  126  A    between atoms: _290  and  _291
REMARK  127  A    between atoms: _291  and  _292
REMARK  128  A    between atoms: _295  and  _297
REMARK  129  A    between atoms: _297  and  _298
REMARK  130  A    between atoms: _297  and  _300
REMARK  131  A    between atoms: _300  and  _301
REMARK  132  A    between atoms: _307  and  _309
REMARK  133  A    between atoms: _309  and  _310
REMARK  134  A    between atoms: _309  and  _312
REMARK  135  A    between atoms: _314  and  _316
REMARK  136  A    between atoms: _316  and  _317
REMARK  137  A    between atoms: _316  and  _319
REMARK  138  A    between atoms: _319  and  _320
REMARK  139  A    between atoms: _320  and  _321
REMARK  140  A    between atoms: _321  and  _322
REMARK  141  A    between atoms: _322  and  _323
REMARK  142  A    between atoms: _327  and  _329
REMARK  143  A    between atoms: _329  and  _330
REMARK  144  A    between atoms: _329  and  _332
REMARK  145  A    between atoms: _332  and  _333
REMARK  146  A    between atoms: _339  and  _341
REMARK  147  A    between atoms: _341  and  _342
REMARK  148  A    between atoms: _344  and  _346
REMARK  149  A    between atoms: _346  and  _347
REMARK  150  A    between atoms: _346  and  _349
REMARK  151  A    between atoms: _349  and  _350
REMARK  152  A    between atoms: _355  and  _357
REMARK  153  A    between atoms: _357  and  _358
REMARK  154  A    between atoms: _360  and  _362
REMARK  155  A    between atoms: _362  and  _363
REMARK  156  A    between atoms: _362  and  _365
REMARK  157  A    between atoms: _365  and  _366
REMARK  158  A    between atoms: _366  and  _367
REMARK  159  A    between atoms: _369  and  _371
REMARK  160  A    between atoms: _371  and  _372
REMARK  161  A    between atoms: _371  and  _374
REMARK  162  A    between atoms: _374  and  _375
REMARK  163  A    between atoms: _381  and  _383
REMARK  164  A    between atoms: _383  and  _384
REMARK  165  A    between atoms: _383  and  _386
REMARK  166  A    between atoms: _386  and  _387
REMARK  167  A    between atoms: _390  and  _392
REMARK  168  A    between atoms: _392  and  _393
REMARK  169  A    between atoms: _392  and  _395
REMARK  170  A    between atoms: _397  and  _399
REMARK  171  A    between atoms: _399  and  _400
REMARK  172  A    between atoms: _399  and  _402
REMARK  173  A    between atoms: _402  and  _403
REMARK  174  A    between atoms: _406  and  _408
REMARK  175  A    between atoms: _408  and  _409
REMARK  176  A    between atoms: _408  and  _411
REMARK  177  A    between atoms: _411  and  _412
REMARK  178  A    between atoms: _417  and  _419
REMARK  179  A    between atoms: _419  and  _420
REMARK  180  A    between atoms: _419  and  _422
REMARK  181  A    between atoms: _422  and  _423
REMARK  182  A    between atoms: _423  and  _424
REMARK  183  A    between atoms: _424  and  _425
REMARK  184  A    between atoms: _434  and  _436
REMARK  185  A    between atoms: _436  and  _437
REMARK  186  A    between atoms: _436  and  _439
REMARK  187  A    between atoms: _439  and  _440
REMARK  188  A    between atoms: _443  and  _445
REMARK  189  A    between atoms: _445  and  _446
REMARK  190  A    between atoms: _445  and  _448
REMARK  191  A    between atoms: _448  and  _449
REMARK  192  A    between atoms: _452  and  _454
REMARK  193  A    between atoms: _454  and  _455
REMARK  194  A    between atoms: _454  and  _457
REMARK  195  A    between atoms: _457  and  _458
REMARK  196  A    between atoms: _458  and  _459
REMARK  197  A    between atoms: _459  and  _460
REMARK  198  A    between atoms: _469  and  _471
REMARK  199  A    between atoms: _471  and  _472
REMARK  200  A    between atoms: _471  and  _474
REMARK  201  A    between atoms: _474  and  _475
REMARK  202  A    between atoms: _480  and  _482
REMARK  203  A    between atoms: _482  and  _483
REMARK  204  A    between atoms: _482  and  _485
REMARK  205  A    between atoms: _485  and  _486
REMARK  206  A    between atoms: _489  and  _491
REMARK  207  A    between atoms: _491  and  _492
REMARK  208  A    between atoms: _491  and  _494
REMARK  209  A    between atoms: _494  and  _495
REMARK  210  A    between atoms: _498  and  _500
REMARK  211  A    between atoms: _500  and  _501
REMARK  212  A    between atoms: _500  and  _503
REMARK  213  A    between atoms: _503  and  _504
REMARK  214  A    between atoms: _507  and  _509
REMARK  215  A    between atoms: _509  and  _510
REMARK  216  A    between atoms: _509  and  _512
REMARK  217  A    between atoms: _512  and  _513
REMARK  218  A    between atoms: _515  and  _517
REMARK  219  A    between atoms: _517  and  _518
REMARK  220  A    between atoms: _517  and  _520
REMARK  221  A    between atoms: _520  and  _521
REMARK  222  A    between atoms: _521  and  _522
REMARK  223  A    between atoms: _522  and  _523
REMARK  224  A    between atoms: _523  and  _524
REMARK  225  A    between atoms: _528  and  _530
REMARK  226  A    between atoms: _530  and  _531
REMARK  227  A    between atoms: _530  and  _533
REMARK  228  A    between atoms: _533  and  _534
REMARK  229  A    between atoms: _537  and  _539
REMARK  230  A    between atoms: _539  and  _540
REMARK  231  A    between atoms: _539  and  _542
REMARK  232  A    between atoms: _544  and  _546
REMARK  233  A    between atoms: _546  and  _547
REMARK  234  A    between atoms: _546  and  _549
REMARK  235  A    between atoms: _549  and  _550
REMARK  236  A    between atoms: _553  and  _555
REMARK  237  A    between atoms: _555  and  _556
REMARK  238  A    between atoms: _555  and  _558
REMARK  239  A    between atoms: _558  and  _559
REMARK  240  A    between atoms: _565  and  _567
REMARK  241  A    between atoms: _567  and  _568
REMARK  242  A    between atoms: _570  and  _572
REMARK  243  A    between atoms: _572  and  _573
REMARK  244  A    between atoms: _572  and  _575
REMARK  245  A    between atoms: _575  and  _576
REMARK  246  A    between atoms: _579  and  _581
REMARK  247  A    between atoms: _581  and  _582
REMARK  248  A    between atoms: _585  and  _587
REMARK  249  A    between atoms: _587  and  _588
REMARK  250  A    between atoms: _587  and  _590
REMARK  251  A    between atoms: _590  and  _591
REMARK  252  A    between atoms: _591  and  _592
REMARK  253  A    between atoms: _592  and  _593
REMARK                            x       y       z     vdW  Elec       q    Type
REMARK                         _______ _______ _______ _____ _____    ______ ____
ROOT
ATOM      1  O   HOH     1     -25.973   8.983 -17.238  0.00  0.00    +0.000 OA
ENDROOT
TORSDOF 0
REMARK  Name = ../refined-set-2016/4asd/4asd_pocket.pdb
REMARK  253 active torsions:
REMARK  status: ('A' for Active; 'I' for Inactive)
REMARK    1  A    between atoms: _1  and  _3
REMARK    2  A    between atoms: _3  and  _4
REMARK    3  A    between atoms: _3  and  _6
REMARK    4  A    between atoms: _6  and  _7
REMARK    5  A    between atoms: _10  and  _12
REMARK    6  A    between atoms: _12  and  _13
REMARK    7  A    between atoms: _12  and  _15
REMARK    8  A    between atoms: _15  and  _16
REMARK    9  A    between atoms: _19  and  _21
REMARK   10  A    between atoms: _21  and  _22
REMARK   11  A    between atoms: _21  and  _24
REMARK   12  A    between atoms: _24  and  _25
REMARK   13  A    between atoms: _25  and  _26
REMARK   14  A    between atoms: _26  and  _27
REMARK   15  A    between atoms: _27  and  _28
REMARK   16  A    between atoms: _33  and  _34
REMARK   17  A    between atoms: _39  and  _41
REMARK   18  A    between atoms: _41  and  _42
REMARK   19  A    between atoms: _41  and  _44
REMARK   20  A    between atoms: _44  and  _45
REMARK   21  A    between atoms: _48  and  _50
REMARK   22  A    between atoms: _50  and  _51
REMARK   23  A    between atoms: _53  and  _55
REMARK   24  A    between atoms: _55  and  _56
REMARK   25  A    between atoms: _55  and  _58
REMARK   26  A    between atoms: _58  and  _59
REMARK   27  A    between atoms: _59  and  _60
REMARK   28  A    between atoms: _65  and  _67
REMARK   29  A    between atoms: _67  and  _68
REMARK   30  A    between atoms: _67  and  _70
REMARK   31  A    between atoms: _73  and  _75
REMARK   32  A    between atoms: _75  and  _76
REMARK   33  A    between atoms: _75  and  _78
REMARK   34  A    between atoms: _78  and  _79
REMARK   35  A    between atoms: _82  and  _84
REMARK   36  A    between atoms: _84  and  _85
REMARK   37  A    between atoms: _84  and  _87
REMARK   38  A    between atoms: _87  and  _88
REMARK   39  A    between atoms: _88  and  _89
REMARK   40  A    between atoms: _92  and  _94
REMARK   41  A    between atoms: _94  and  _95
REMARK   42  A    between atoms: _94  and  _97
REMARK   43  A    between atoms: _97  and  _98
REMARK   44  A    between atoms: _101  and  _103
REMARK   45  A    between atoms: _103  and  _104
REMARK   46  A    between atoms: _103  and  _106
REMARK   47  A    between atoms: _109  and  _111
REMARK   48  A    between atoms: _111  and  _112
REMARK   49  A    between atoms: _115  and  _117
REMARK   50  A    between atoms: _117  and  _118
REMARK   51  A    between atoms: _117  and  _120
REMARK   52  A    between atoms: _123  and  _125
REMARK   53  A    between atoms: _125  and  _126
REMARK   54  A    between atoms: _125  and  _128
REMARK   55  A    between atoms: _128  and  _129
REMARK   56  A    between atoms: _129  and  _130
REMARK   57  A    between atoms: _130  and  _131
REMARK   58  A    between atoms: _131  and  _132
REMARK   59  A    between atoms: _136  and  _138
REMARK   60  A    between atoms: _138  and  _139
REMARK   61  A    between atoms: _138  and  _141
REMARK   62  A    between atoms: _141  and  _142
REMARK   63  A    between atoms: _142  and  _143
REMARK   64  A    between atoms: _145  and  _147
REMARK   65  A    between atoms: _147  and  _148
REMARK   66  A    between atoms: _147  and  _150
REMARK   67  A    between atoms: _150  and  _151
REMARK   68  A    between atoms: _154  and  _156
REMARK   69  A    between atoms: _156  and  _157
REMARK   70  A    between atoms: _156  and  _159
REMARK   71  A    between atoms: _159  and  _160
REMARK   72  A    between atoms: _162  and  _164
REMARK   73  A    between atoms: _164  and  _165
REMARK   74  A    between atoms: _164  and  _167
REMARK   75  A    between atoms: _167  and  _168
REMARK   76  A    between atoms: _168  and  _169
REMARK   77  A    between atoms: _172  and  _174
REMARK   78  A    between atoms: _174  and  _175
REMARK   79  A    between atoms: _174  and  _177
REMARK   80  A    between atoms: _177  and  _178
REMARK   81  A    between atoms: _181  and  _183
REMARK   82  A    between atoms: _183  and  _184
REMARK   83  A    between atoms: _183  and  _186
REMARK   84  A    between atoms: _186  and  _187
REMARK   85  A    between atoms: _190  and  _192
REMARK   86  A    between atoms: _192  and  _193
REMARK   87  A    between atoms: _192  and  _195
REMARK   88  A    between atoms: _195  and  _196
REMARK   89  A    between atoms: _199  and  _201
REMARK   90  A    between atoms: _201  and  _202
REMARK   91  A    between atoms: _201  and  _204
REMARK   92  A    between atoms: _204  and  _205
REMARK   93  A    between atoms: _208  and  _210
REMARK   94  A    between atoms: _210  and  _211
REMARK   95  A    between atoms: _213  and  _215
REMARK   96  A    between atoms: _215  and  _216
REMARK   97  A    between atoms: _215  and  _218
REMARK   98  A    between atoms: _218  and  _219
REMARK   99  A    between atoms: _224  and  _226
REMARK  100  A    between atoms: _226  and  _227
REMARK  101  A    between atoms: _226  and  _229
REMARK  102  A    between atoms: _232  and  _234
REMARK  103  A    between atoms: _234  and  _235
REMARK  104  A    between atoms: _234  and  _237
REMARK  105  A    between atoms: _240  and  _242
REMARK  106  A    between atoms: _242  and  _243
REMARK  107  A    between atoms: _242  and  _245
REMARK  108  A    between atoms: _245  and  _246
REMARK  109  A    between atoms: _251  and  _253
REMARK  110  A    between atoms: _253  and  _254
REMARK  111  A    between atoms: _253  and  _256
REMARK  112  A    between atoms: _256  and  _257
REMARK  113  A    between atoms: _260  and  _262
REMARK  114  A    between atoms: _262  and  _263
REMARK  115  A    between atoms: _262  and  _265
REMARK  116  A    between atoms: _268  and  _270
REMARK  117  A    between atoms: _270  and  _271
REMARK  118  A    between atoms: _270  and  _273
REMARK  119  A    between atoms: _273  and  _274
REMARK  120  A    between atoms: _277  and  _279
REMARK  121  A    between atoms: _279  and  _280
REMARK  122  A    between atoms: _279  and  _282
REMARK  123  A    between atoms: _285  and  _287
REMARK  124  A    between atoms: _287  and  _288
REMARK  125  A    between atoms: _287  and  _290
REMARK  126  A    between atoms: _290  and  _291
REMARK  127  A    between atoms: _291  and  _292
REMARK  128  A    between atoms: _295  and  _297
REMARK  129  A    between atoms: _297  and  _298
REMARK  130  A    between atoms: _297  and  _300
REMARK  131  A    between atoms: _300  and  _301
REMARK  132  A    between atoms: _307  and  _309
REMARK  133  A    between atoms: _309  and  _310
REMARK  134  A    between atoms: _309  and  _312
REMARK  135  A    between atoms: _314  and  _316
REMARK  136  A    between atoms: _316  and  _317
REMARK  137  A    between atoms: _316  and  _319
REMARK  138  A    between atoms: _319  and  _320
REMARK  139  A    between atoms: _320  and  _321
REMARK  140  A    between atoms: _321  and  _322
REMARK  141  A    between atoms: _322  and  _323
REMARK  142  A    between atoms: _327  and  _329
REMARK  143  A    between atoms: _329  and  _330
REMARK  144  A    between atoms: _329  and  _332
REMARK  145  A    between atoms: _332  and  _333
REMARK  146  A    between atoms: _339  and  _341
REMARK  147  A    between atoms: _341  and  _342
REMARK  148  A    between atoms: _344  and  _346
REMARK  149  A    between atoms: _346  and  _347
REMARK  150  A    between atoms: _346  and  _349
REMARK  151  A    between atoms: _349  and  _350
REMARK  152  A    between atoms: _355  and  _357
REMARK  153  A    between atoms: _357  and  _358
REMARK  154  A    between atoms: _360  and  _362
REMARK  155  A    between atoms: _362  and  _363
REMARK  156  A    between atoms: _362  and  _365
REMARK  157  A    between atoms: _365  and  _366
REMARK  158  A    between atoms: _366  and  _367
REMARK  159  A    between atoms: _369  and  _371
REMARK  160  A    between atoms: _371  and  _372
REMARK  161  A    between atoms: _371  and  _374
REMARK  162  A    between atoms: _374  and  _375
REMARK  163  A    between atoms: _381  and  _383
REMARK  164  A    between atoms: _383  and  _384
REMARK  165  A    between atoms: _383  and  _386
REMARK  166  A    between atoms: _386  and  _387
REMARK  167  A    between atoms: _390  and  _392
REMARK  168  A    between atoms: _392  and  _393
REMARK  169  A    between atoms: _392  and  _395
REMARK  170  A    between atoms: _397  and  _399
REMARK  171  A    between atoms: _399  and  _400
REMARK  172  A    between atoms: _399  and  _402
REMARK  173  A    between atoms: _402  and  _403
REMARK  174  A    between atoms: _406  and  _408
REMARK  175  A    between atoms: _408  and  _409
REMARK  176  A    between atoms: _408  and  _411
REMARK  177  A    between atoms: _411  and  _412
REMARK  178  A    between atoms: _417  and  _419
REMARK  179  A    between atoms: _419  and  _420
REMARK  180  A    between atoms: _419  and  _422
REMARK  181  A    between atoms: _422  and  _423
REMARK  182  A    between atoms: _423  and  _424
REMARK  183  A    between atoms: _424  and  _425
REMARK  184  A    between atoms: _434  and  _436
REMARK  185  A    between atoms: _436  and  _437
REMARK  186  A    between atoms: _436  and  _439
REMARK  187  A    between atoms: _439  and  _440
REMARK  188  A    between atoms: _443  and  _445
REMARK  189  A    between atoms: _445  and  _446
REMARK  190  A    between atoms: _445  and  _448
REMARK  191  A    between atoms: _448  and  _449
REMARK  192  A    between atoms: _452  and  _454
REMARK  193  A    between atoms: _454  and  _455
REMARK  194  A    between atoms: _454  and  _457
REMARK  195  A    between atoms: _457  and  _458
REMARK  196  A    between atoms: _458  and  _459
REMARK  197  A    between atoms: _459  and  _460
REMARK  198  A    between atoms: _469  and  _471
REMARK  199  A    between atoms: _471  and  _472
REMARK  200  A    between atoms: _471  and  _474
REMARK  201  A    between atoms: _474  and  _475
REMARK  202  A    between atoms: _480  and  _482
REMARK  203  A    between atoms: _482  and  _483
REMARK  204  A    between atoms: _482  and  _485
REMARK  205  A    between atoms: _485  and  _486
REMARK  206  A    between atoms: _489  and  _491
REMARK  207  A    between atoms: _491  and  _492
REMARK  208  A    between atoms: _491  and  _494
REMARK  209  A    between atoms: _494  and  _495
REMARK  210  A    between atoms: _498  and  _500
REMARK  211  A    between atoms: _500  and  _501
REMARK  212  A    between atoms: _500  and  _503
REMARK  213  A    between atoms: _503  and  _504
REMARK  214  A    between atoms: _507  and  _509
REMARK  215  A    between atoms: _509  and  _510
REMARK  216  A    between atoms: _509  and  _512
REMARK  217  A    between atoms: _512  and  _513
REMARK  218  A    between atoms: _515  and  _517
REMARK  219  A    between atoms: _517  and  _518
REMARK  220  A    between atoms: _517  and  _520
REMARK  221  A    between atoms: _520  and  _521
REMARK  222  A    between atoms: _521  and  _522
REMARK  223  A    between atoms: _522  and  _523
REMARK  224  A    between atoms: _523  and  _524
REMARK  225  A    between atoms: _528  and  _530
REMARK  226  A    between atoms: _530  and  _531
REMARK  227  A    between atoms: _530  and  _533
REMARK  228  A    between atoms: _533  and  _534
REMARK  229  A    between atoms: _537  and  _539
REMARK  230  A    between atoms: _539  and  _540
REMARK  231  A    between atoms: _539  and  _542
REMARK  232  A    between atoms: _544  and  _546
REMARK  233  A    between atoms: _546  and  _547
REMARK  234  A    between atoms: _546  and  _549
REMARK  235  A    between atoms: _549  and  _550
REMARK  236  A    between atoms: _553  and  _555
REMARK  237  A    between atoms: _555  and  _556
REMARK  238  A    between atoms: _555  and  _558
REMARK  239  A    between atoms: _558  and  _559
REMARK  240  A    between atoms: _565  and  _567
REMARK  241  A    between atoms: _567  and  _568
REMARK  242  A    between atoms: _570  and  _572
REMARK  243  A    between atoms: _572  and  _573
REMARK  244  A    between atoms: _572  and  _575
REMARK  245  A    between atoms: _575  and  _576
REMARK  246  A    between atoms: _579  and  _581
REMARK  247  A    between atoms: _581  and  _582
REMARK  248  A    between atoms: _585  and  _587
REMARK  249  A    between atoms: _587  and  _588
REMARK  250  A    between atoms: _587  and  _590
REMARK  251  A    between atoms: _590  and  _591
REMARK  252  A    between atoms: _591  and  _592
REMARK  253  A    between atoms: _592  and  _593
REMARK                            x       y       z     vdW  Elec       q    Type
REMARK                         _______ _______ _______ _____ _____    ______ ____
ROOT
ATOM      1  O   HOH     1     -27.034  -7.011  -9.073  0.00  0.00    +0.000 OA
ENDROOT
TORSDOF 0
REMARK  Name = ../refined-set-2016/4asd/4asd_pocket.pdb
REMARK  253 active torsions:
REMARK  status: ('A' for Active; 'I' for Inactive)
REMARK    1  A    between atoms: _1  and  _3
REMARK    2  A    between atoms: _3  and  _4
REMARK    3  A    between atoms: _3  and  _6
REMARK    4  A    between atoms: _6  and  _7
REMARK    5  A    between atoms: _10  and  _12
REMARK    6  A    between atoms: _12  and  _13
REMARK    7  A    between atoms: _12  and  _15
REMARK    8  A    between atoms: _15  and  _16
REMARK    9  A    between atoms: _19  and  _21
REMARK   10  A    between atoms: _21  and  _22
REMARK   11  A    between atoms: _21  and  _24
REMARK   12  A    between atoms: _24  and  _25
REMARK   13  A    between atoms: _25  and  _26
REMARK   14  A    between atoms: _26  and  _27
REMARK   15  A    between atoms: _27  and  _28
REMARK   16  A    between atoms: _33  and  _34
REMARK   17  A    between atoms: _39  and  _41
REMARK   18  A    between atoms: _41  and  _42
REMARK   19  A    between atoms: _41  and  _44
REMARK   20  A    between atoms: _44  and  _45
REMARK   21  A    between atoms: _48  and  _50
REMARK   22  A    between atoms: _50  and  _51
REMARK   23  A    between atoms: _53  and  _55
REMARK   24  A    between atoms: _55  and  _56
REMARK   25  A    between atoms: _55  and  _58
REMARK   26  A    between atoms: _58  and  _59
REMARK   27  A    between atoms: _59  and  _60
REMARK   28  A    between atoms: _65  and  _67
REMARK   29  A    between atoms: _67  and  _68
REMARK   30  A    between atoms: _67  and  _70
REMARK   31  A    between atoms: _73  and  _75
REMARK   32  A    between atoms: _75  and  _76
REMARK   33  A    between atoms: _75  and  _78
REMARK   34  A    between atoms: _78  and  _79
REMARK   35  A    between atoms: _82  and  _84
REMARK   36  A    between atoms: _84  and  _85
REMARK   37  A    between atoms: _84  and  _87
REMARK   38  A    between atoms: _87  and  _88
REMARK   39  A    between atoms: _88  and  _89
REMARK   40  A    between atoms: _92  and  _94
REMARK   41  A    between atoms: _94  and  _95
REMARK   42  A    between atoms: _94  and  _97
REMARK   43  A    between atoms: _97  and  _98
REMARK   44  A    between atoms: _101  and  _103
REMARK   45  A    between atoms: _103  and  _104
REMARK   46  A    between atoms: _103  and  _106
REMARK   47  A    between atoms: _109  and  _111
REMARK   48  A    between atoms: _111  and  _112
REMARK   49  A    between atoms: _115  and  _117
REMARK   50  A    between atoms: _117  and  _118
REMARK   51  A    between atoms: _117  and  _120
REMARK   52  A    between atoms: _123  and  _125
REMARK   53  A    between atoms: _125  and  _126
REMARK   54  A    between atoms: _125  and  _128
REMARK   55  A    between atoms: _128  and  _129
REMARK   56  A    between atoms: _129  and  _130
REMARK   57  A    between atoms: _130  and  _131
REMARK   58  A    between atoms: _131  and  _132
REMARK   59  A    between atoms: _136  and  _138
REMARK   60  A    between atoms: _138  and  _139
REMARK   61  A    between atoms: _138  and  _141
REMARK   62  A    between atoms: _141  and  _142
REMARK   63  A    between atoms: _142  and  _143
REMARK   64  A    between atoms: _145  and  _147
REMARK   65  A    between atoms: _147  and  _148
REMARK   66  A    between atoms: _147  and  _150
REMARK   67  A    between atoms: _150  and  _151
REMARK   68  A    between atoms: _154  and  _156
REMARK   69  A    between atoms: _156  and  _157
REMARK   70  A    between atoms: _156  and  _159
REMARK   71  A    between atoms: _159  and  _160
REMARK   72  A    between atoms: _162  and  _164
REMARK   73  A    between atoms: _164  and  _165
REMARK   74  A    between atoms: _164  and  _167
REMARK   75  A    between atoms: _167  and  _168
REMARK   76  A    between atoms: _168  and  _169
REMARK   77  A    between atoms: _172  and  _174
REMARK   78  A    between atoms: _174  and  _175
REMARK   79  A    between atoms: _174  and  _177
REMARK   80  A    between atoms: _177  and  _178
REMARK   81  A    between atoms: _181  and  _183
REMARK   82  A    between atoms: _183  and  _184
REMARK   83  A    between atoms: _183  and  _186
REMARK   84  A    between atoms: _186  and  _187
REMARK   85  A    between atoms: _190  and  _192
REMARK   86  A    between atoms: _192  and  _193
REMARK   87  A    between atoms: _192  and  _195
REMARK   88  A    between atoms: _195  and  _196
REMARK   89  A    between atoms: _199  and  _201
REMARK   90  A    between atoms: _201  and  _202
REMARK   91  A    between atoms: _201  and  _204
REMARK   92  A    between atoms: _204  and  _205
REMARK   93  A    between atoms: _208  and  _210
REMARK   94  A    between atoms: _210  and  _211
REMARK   95  A    between atoms: _213  and  _215
REMARK   96  A    between atoms: _215  and  _216
REMARK   97  A    between atoms: _215  and  _218
REMARK   98  A    between atoms: _218  and  _219
REMARK   99  A    between atoms: _224  and  _226
REMARK  100  A    between atoms: _226  and  _227
REMARK  101  A    between atoms: _226  and  _229
REMARK  102  A    between atoms: _232  and  _234
REMARK  103  A    between atoms: _234  and  _235
REMARK  104  A    between atoms: _234  and  _237
REMARK  105  A    between atoms: _240  and  _242
REMARK  106  A    between atoms: _242  and  _243
REMARK  107  A    between atoms: _242  and  _245
REMARK  108  A    between atoms: _245  and  _246
REMARK  109  A    between atoms: _251  and  _253
REMARK  110  A    between atoms: _253  and  _254
REMARK  111  A    between atoms: _253  and  _256
REMARK  112  A    between atoms: _256  and  _257
REMARK  113  A    between atoms: _260  and  _262
REMARK  114  A    between atoms: _262  and  _263
REMARK  115  A    between atoms: _262  and  _265
REMARK  116  A    between atoms: _268  and  _270
REMARK  117  A    between atoms: _270  and  _271
REMARK  118  A    between atoms: _270  and  _273
REMARK  119  A    between atoms: _273  and  _274
REMARK  120  A    between atoms: _277  and  _279
REMARK  121  A    between atoms: _279  and  _280
REMARK  122  A    between atoms: _279  and  _282
REMARK  123  A    between atoms: _285  and  _287
REMARK  124  A    between atoms: _287  and  _288
REMARK  125  A    between atoms: _287  and  _290
REMARK  126  A    between atoms: _290  and  _291
REMARK  127  A    between atoms: _291  and  _292
REMARK  128  A    between atoms: _295  and  _297
REMARK  129  A    between atoms: _297  and  _298
REMARK  130  A    between atoms: _297  and  _300
REMARK  131  A    between atoms: _300  and  _301
REMARK  132  A    between atoms: _307  and  _309
REMARK  133  A    between atoms: _309  and  _310
REMARK  134  A    between atoms: _309  and  _312
REMARK  135  A    between atoms: _314  and  _316
REMARK  136  A    between atoms: _316  and  _317
REMARK  137  A    between atoms: _316  and  _319
REMARK  138  A    between atoms: _319  and  _320
REMARK  139  A    between atoms: _320  and  _321
REMARK  140  A    between atoms: _321  and  _322
REMARK  141  A    between atoms: _322  and  _323
REMARK  142  A    between atoms: _327  and  _329
REMARK  143  A    between atoms: _329  and  _330
REMARK  144  A    between atoms: _329  and  _332
REMARK  145  A    between atoms: _332  and  _333
REMARK  146  A    between atoms: _339  and  _341
REMARK  147  A    between atoms: _341  and  _342
REMARK  148  A    between atoms: _344  and  _346
REMARK  149  A    between atoms: _346  and  _347
REMARK  150  A    between atoms: _346  and  _349
REMARK  151  A    between atoms: _349  and  _350
REMARK  152  A    between atoms: _355  and  _357
REMARK  153  A    between atoms: _357  and  _358
REMARK  154  A    between atoms: _360  and  _362
REMARK  155  A    between atoms: _362  and  _363
REMARK  156  A    between atoms: _362  and  _365
REMARK  157  A    between atoms: _365  and  _366
REMARK  158  A    between atoms: _366  and  _367
REMARK  159  A    between atoms: _369  and  _371
REMARK  160  A    between atoms: _371  and  _372
REMARK  161  A    between atoms: _371  and  _374
REMARK  162  A    between atoms: _374  and  _375
REMARK  163  A    between atoms: _381  and  _383
REMARK  164  A    between atoms: _383  and  _384
REMARK  165  A    between atoms: _383  and  _386
REMARK  166  A    between atoms: _386  and  _387
REMARK  167  A    between atoms: _390  and  _392
REMARK  168  A    between atoms: _392  and  _393
REMARK  169  A    between atoms: _392  and  _395
REMARK  170  A    between atoms: _397  and  _399
REMARK  171  A    between atoms: _399  and  _400
REMARK  172  A    between atoms: _399  and  _402
REMARK  173  A    between atoms: _402  and  _403
REMARK  174  A    between atoms: _406  and  _408
REMARK  175  A    between atoms: _408  and  _409
REMARK  176  A    between atoms: _408  and  _411
REMARK  177  A    between atoms: _411  and  _412
REMARK  178  A    between atoms: _417  and  _419
REMARK  179  A    between atoms: _419  and  _420
REMARK  180  A    between atoms: _419  and  _422
REMARK  181  A    between atoms: _422  and  _423
REMARK  182  A    between atoms: _423  and  _424
REMARK  183  A    between atoms: _424  and  _425
REMARK  184  A    between atoms: _434  and  _436
REMARK  185  A    between atoms: _436  and  _437
REMARK  186  A    between atoms: _436  and  _439
REMARK  187  A    between atoms: _439  and  _440
REMARK  188  A    between atoms: _443  and  _445
REMARK  189  A    between atoms: _445  and  _446
REMARK  190  A    between atoms: _445  and  _448
REMARK  191  A    between atoms: _448  and  _449
REMARK  192  A    between atoms: _452  and  _454
REMARK  193  A    between atoms: _454  and  _455
REMARK  194  A    between atoms: _454  and  _457
REMARK  195  A    between atoms: _457  and  _458
REMARK  196  A    between atoms: _458  and  _459
REMARK  197  A    between atoms: _459  and  _460
REMARK  198  A    between atoms: _469  and  _471
REMARK  199  A    between atoms: _471  and  _472
REMARK  200  A    between atoms: _471  and  _474
REMARK  201  A    between atoms: _474  and  _475
REMARK  202  A    between atoms: _480  and  _482
REMARK  203  A    between atoms: _482  and  _483
REMARK  204  A    between atoms: _482  and  _485
REMARK  205  A    between atoms: _485  and  _486
REMARK  206  A    between atoms: _489  and  _491
REMARK  207  A    between atoms: _491  and  _492
REMARK  208  A    between atoms: _491  and  _494
REMARK  209  A    between atoms: _494  and  _495
REMARK  210  A    between atoms: _498  and  _500
REMARK  211  A    between atoms: _500  and  _501
REMARK  212  A    between atoms: _500  and  _503
REMARK  213  A    between atoms: _503  and  _504
REMARK  214  A    between atoms: _507  and  _509
REMARK  215  A    between atoms: _509  and  _510
REMARK  216  A    between atoms: _509  and  _512
REMARK  217  A    between atoms: _512  and  _513
REMARK  218  A    between atoms: _515  and  _517
REMARK  219  A    between atoms: _517  and  _518
REMARK  220  A    between atoms: _517  and  _520
REMARK  221  A    between atoms: _520  and  _521
REMARK  222  A    between atoms: _521  and  _522
REMARK  223  A    between atoms: _522  and  _523
REMARK  224  A    between atoms: _523  and  _524
REMARK  225  A    between atoms: _528  and  _530
REMARK  226  A    between atoms: _530  and  _531
REMARK  227  A    between atoms: _530  and  _533
REMARK  228  A    between atoms: _533  and  _534
REMARK  229  A    between atoms: _537  and  _539
REMARK  230  A    between atoms: _539  and  _540
REMARK  231  A    between atoms: _539  and  _542
REMARK  232  A    between atoms: _544  and  _546
REMARK  233  A    between atoms: _546  and  _547
REMARK  234  A    between atoms: _546  and  _549
REMARK  235  A    between atoms: _549  and  _550
REMARK  236  A    between atoms: _553  and  _555
REMARK  237  A    between atoms: _555  and  _556
REMARK  238  A    between atoms: _555  and  _558
REMARK  239  A    between atoms: _558  and  _559
REMARK  240  A    between atoms: _565  and  _567
REMARK  241  A    between atoms: _567  and  _568
REMARK  242  A    between atoms: _570  and  _572
REMARK  243  A    between atoms: _572  and  _573
REMARK  244  A    between atoms: _572  and  _575
REMARK  245  A    between atoms: _575  and  _576
REMARK  246  A    between atoms: _579  and  _581
REMARK  247  A    between atoms: _581  and  _582
REMARK  248  A    between atoms: _585  and  _587
REMARK  249  A    between atoms: _587  and  _588
REMARK  250  A    between atoms: _587  and  _590
REMARK  251  A    between atoms: _590  and  _591
REMARK  252  A    between atoms: _591  and  _592
REMARK  253  A    between atoms: _592  and  _593
REMARK                            x       y       z     vdW  Elec       q    Type
REMARK                         _______ _______ _______ _____ _____    ______ ____
ROOT
ATOM      1  O   HOH     1     -26.344  -8.990 -11.616  0.00  0.00    +0.000 OA
ENDROOT
TORSDOF 0
REMARK  Name = ../refined-set-2016/4asd/4asd_pocket.pdb
REMARK  253 active torsions:
REMARK  status: ('A' for Active; 'I' for Inactive)
REMARK    1  A    between atoms: _1  and  _3
REMARK    2  A    between atoms: _3  and  _4
REMARK    3  A    between atoms: _3  and  _6
REMARK    4  A    between atoms: _6  and  _7
REMARK    5  A    between atoms: _10  and  _12
REMARK    6  A    between atoms: _12  and  _13
REMARK    7  A    between atoms: _12  and  _15
REMARK    8  A    between atoms: _15  and  _16
REMARK    9  A    between atoms: _19  and  _21
REMARK   10  A    between atoms: _21  and  _22
REMARK   11  A    between atoms: _21  and  _24
REMARK   12  A    between atoms: _24  and  _25
REMARK   13  A    between atoms: _25  and  _26
REMARK   14  A    between atoms: _26  and  _27
REMARK   15  A    between atoms: _27  and  _28
REMARK   16  A    between atoms: _33  and  _34
REMARK   17  A    between atoms: _39  and  _41
REMARK   18  A    between atoms: _41  and  _42
REMARK   19  A    between atoms: _41  and  _44
REMARK   20  A    between atoms: _44  and  _45
REMARK   21  A    between atoms: _48  and  _50
REMARK   22  A    between atoms: _50  and  _51
REMARK   23  A    between atoms: _53  and  _55
REMARK   24  A    between atoms: _55  and  _56
REMARK   25  A    between atoms: _55  and  _58
REMARK   26  A    between atoms: _58  and  _59
REMARK   27  A    between atoms: _59  and  _60
REMARK   28  A    between atoms: _65  and  _67
REMARK   29  A    between atoms: _67  and  _68
REMARK   30  A    between atoms: _67  and  _70
REMARK   31  A    between atoms: _73  and  _75
REMARK   32  A    between atoms: _75  and  _76
REMARK   33  A    between atoms: _75  and  _78
REMARK   34  A    between atoms: _78  and  _79
REMARK   35  A    between atoms: _82  and  _84
REMARK   36  A    between atoms: _84  and  _85
REMARK   37  A    between atoms: _84  and  _87
REMARK   38  A    between atoms: _87  and  _88
REMARK   39  A    between atoms: _88  and  _89
REMARK   40  A    between atoms: _92  and  _94
REMARK   41  A    between atoms: _94  and  _95
REMARK   42  A    between atoms: _94  and  _97
REMARK   43  A    between atoms: _97  and  _98
REMARK   44  A    between atoms: _101  and  _103
REMARK   45  A    between atoms: _103  and  _104
REMARK   46  A    between atoms: _103  and  _106
REMARK   47  A    between atoms: _109  and  _111
REMARK   48  A    between atoms: _111  and  _112
REMARK   49  A    between atoms: _115  and  _117
REMARK   50  A    between atoms: _117  and  _118
REMARK   51  A    between atoms: _117  and  _120
REMARK   52  A    between atoms: _123  and  _125
REMARK   53  A    between atoms: _125  and  _126
REMARK   54  A    between atoms: _125  and  _128
REMARK   55  A    between atoms: _128  and  _129
REMARK   56  A    between atoms: _129  and  _130
REMARK   57  A    between atoms: _130  and  _131
REMARK   58  A    between atoms: _131  and  _132
REMARK   59  A    between atoms: _136  and  _138
REMARK   60  A    between atoms: _138  and  _139
REMARK   61  A    between atoms: _138  and  _141
REMARK   62  A    between atoms: _141  and  _142
REMARK   63  A    between atoms: _142  and  _143
REMARK   64  A    between atoms: _145  and  _147
REMARK   65  A    between atoms: _147  and  _148
REMARK   66  A    between atoms: _147  and  _150
REMARK   67  A    between atoms: _150  and  _151
REMARK   68  A    between atoms: _154  and  _156
REMARK   69  A    between atoms: _156  and  _157
REMARK   70  A    between atoms: _156  and  _159
REMARK   71  A    between atoms: _159  and  _160
REMARK   72  A    between atoms: _162  and  _164
REMARK   73  A    between atoms: _164  and  _165
REMARK   74  A    between atoms: _164  and  _167
REMARK   75  A    between atoms: _167  and  _168
REMARK   76  A    between atoms: _168  and  _169
REMARK   77  A    between atoms: _172  and  _174
REMARK   78  A    between atoms: _174  and  _175
REMARK   79  A    between atoms: _174  and  _177
REMARK   80  A    between atoms: _177  and  _178
REMARK   81  A    between atoms: _181  and  _183
REMARK   82  A    between atoms: _183  and  _184
REMARK   83  A    between atoms: _183  and  _186
REMARK   84  A    between atoms: _186  and  _187
REMARK   85  A    between atoms: _190  and  _192
REMARK   86  A    between atoms: _192  and  _193
REMARK   87  A    between atoms: _192  and  _195
REMARK   88  A    between atoms: _195  and  _196
REMARK   89  A    between atoms: _199  and  _201
REMARK   90  A    between atoms: _201  and  _202
REMARK   91  A    between atoms: _201  and  _204
REMARK   92  A    between atoms: _204  and  _205
REMARK   93  A    between atoms: _208  and  _210
REMARK   94  A    between atoms: _210  and  _211
REMARK   95  A    between atoms: _213  and  _215
REMARK   96  A    between atoms: _215  and  _216
REMARK   97  A    between atoms: _215  and  _218
REMARK   98  A    between atoms: _218  and  _219
REMARK   99  A    between atoms: _224  and  _226
REMARK  100  A    between atoms: _226  and  _227
REMARK  101  A    between atoms: _226  and  _229
REMARK  102  A    between atoms: _232  and  _234
REMARK  103  A    between atoms: _234  and  _235
REMARK  104  A    between atoms: _234  and  _237
REMARK  105  A    between atoms: _240  and  _242
REMARK  106  A    between atoms: _242  and  _243
REMARK  107  A    between atoms: _242  and  _245
REMARK  108  A    between atoms: _245  and  _246
REMARK  109  A    between atoms: _251  and  _253
REMARK  110  A    between atoms: _253  and  _254
REMARK  111  A    between atoms: _253  and  _256
REMARK  112  A    between atoms: _256  and  _257
REMARK  113  A    between atoms: _260  and  _262
REMARK  114  A    between atoms: _262  and  _263
REMARK  115  A    between atoms: _262  and  _265
REMARK  116  A    between atoms: _268  and  _270
REMARK  117  A    between atoms: _270  and  _271
REMARK  118  A    between atoms: _270  and  _273
REMARK  119  A    between atoms: _273  and  _274
REMARK  120  A    between atoms: _277  and  _279
REMARK  121  A    between atoms: _279  and  _280
REMARK  122  A    between atoms: _279  and  _282
REMARK  123  A    between atoms: _285  and  _287
REMARK  124  A    between atoms: _287  and  _288
REMARK  125  A    between atoms: _287  and  _290
REMARK  126  A    between atoms: _290  and  _291
REMARK  127  A    between atoms: _291  and  _292
REMARK  128  A    between atoms: _295  and  _297
REMARK  129  A    between atoms: _297  and  _298
REMARK  130  A    between atoms: _297  and  _300
REMARK  131  A    between atoms: _300  and  _301
REMARK  132  A    between atoms: _307  and  _309
REMARK  133  A    between atoms: _309  and  _310
REMARK  134  A    between atoms: _309  and  _312
REMARK  135  A    between atoms: _314  and  _316
REMARK  136  A    between atoms: _316  and  _317
REMARK  137  A    between atoms: _316  and  _319
REMARK  138  A    between atoms: _319  and  _320
REMARK  139  A    between atoms: _320  and  _321
REMARK  140  A    between atoms: _321  and  _322
REMARK  141  A    between atoms: _322  and  _323
REMARK  142  A    between atoms: _327  and  _329
REMARK  143  A    between atoms: _329  and  _330
REMARK  144  A    between atoms: _329  and  _332
REMARK  145  A    between atoms: _332  and  _333
REMARK  146  A    between atoms: _339  and  _341
REMARK  147  A    between atoms: _341  and  _342
REMARK  148  A    between atoms: _344  and  _346
REMARK  149  A    between atoms: _346  and  _347
REMARK  150  A    between atoms: _346  and  _349
REMARK  151  A    between atoms: _349  and  _350
REMARK  152  A    between atoms: _355  and  _357
REMARK  153  A    between atoms: _357  and  _358
REMARK  154  A    between atoms: _360  and  _362
REMARK  155  A    between atoms: _362  and  _363
REMARK  156  A    between atoms: _362  and  _365
REMARK  157  A    between atoms: _365  and  _366
REMARK  158  A    between atoms: _366  and  _367
REMARK  159  A    between atoms: _369  and  _371
REMARK  160  A    between atoms: _371  and  _372
REMARK  161  A    between atoms: _371  and  _374
REMARK  162  A    between atoms: _374  and  _375
REMARK  163  A    between atoms: _381  and  _383
REMARK  164  A    between atoms: _383  and  _384
REMARK  165  A    between atoms: _383  and  _386
REMARK  166  A    between atoms: _386  and  _387
REMARK  167  A    between atoms: _390  and  _392
REMARK  168  A    between atoms: _392  and  _393
REMARK  169  A    between atoms: _392  and  _395
REMARK  170  A    between atoms: _397  and  _399
REMARK  171  A    between atoms: _399  and  _400
REMARK  172  A    between atoms: _399  and  _402
REMARK  173  A    between atoms: _402  and  _403
REMARK  174  A    between atoms: _406  and  _408
REMARK  175  A    between atoms: _408  and  _409
REMARK  176  A    between atoms: _408  and  _411
REMARK  177  A    between atoms: _411  and  _412
REMARK  178  A    between atoms: _417  and  _419
REMARK  179  A    between atoms: _419  and  _420
REMARK  180  A    between atoms: _419  and  _422
REMARK  181  A    between atoms: _422  and  _423
REMARK  182  A    between atoms: _423  and  _424
REMARK  183  A    between atoms: _424  and  _425
REMARK  184  A    between atoms: _434  and  _436
REMARK  185  A    between atoms: _436  and  _437
REMARK  186  A    between atoms: _436  and  _439
REMARK  187  A    between atoms: _439  and  _440
REMARK  188  A    between atoms: _443  and  _445
REMARK  189  A    between atoms: _445  and  _446
REMARK  190  A    between atoms: _445  and  _448
REMARK  191  A    between atoms: _448  and  _449
REMARK  192  A    between atoms: _452  and  _454
REMARK  193  A    between atoms: _454  and  _455
REMARK  194  A    between atoms: _454  and  _457
REMARK  195  A    between atoms: _457  and  _458
REMARK  196  A    between atoms: _458  and  _459
REMARK  197  A    between atoms: _459  and  _460
REMARK  198  A    between atoms: _469  and  _471
REMARK  199  A    between atoms: _471  and  _472
REMARK  200  A    between atoms: _471  and  _474
REMARK  201  A    between atoms: _474  and  _475
REMARK  202  A    between atoms: _480  and  _482
REMARK  203  A    between atoms: _482  and  _483
REMARK  204  A    between atoms: _482  and  _485
REMARK  205  A    between atoms: _485  and  _486
REMARK  206  A    between atoms: _489  and  _491
REMARK  207  A    between atoms: _491  and  _492
REMARK  208  A    between atoms: _491  and  _494
REMARK  209  A    between atoms: _494  and  _495
REMARK  210  A    between atoms: _498  and  _500
REMARK  211  A    between atoms: _500  and  _501
REMARK  212  A    between atoms: _500  and  _503
REMARK  213  A    between atoms: _503  and  _504
REMARK  214  A    between atoms: _507  and  _509
REMARK  215  A    between atoms: _509  and  _510
REMARK  216  A    between atoms: _509  and  _512
REMARK  217  A    between atoms: _512  and  _513
REMARK  218  A    between atoms: _515  and  _517
REMARK  219  A    between atoms: _517  and  _518
REMARK  220  A    between atoms: _517  and  _520
REMARK  221  A    between atoms: _520  and  _521
REMARK  222  A    between atoms: _521  and  _522
REMARK  223  A    between atoms: _522  and  _523
REMARK  224  A    between atoms: _523  and  _524
REMARK  225  A    between atoms: _528  and  _530
REMARK  226  A    between atoms: _530  and  _531
REMARK  227  A    between atoms: _530  and  _533
REMARK  228  A    between atoms: _533  and  _534
REMARK  229  A    between atoms: _537  and  _539
REMARK  230  A    between atoms: _539  and  _540
REMARK  231  A    between atoms: _539  and  _542
REMARK  232  A    between atoms: _544  and  _546
REMARK  233  A    between atoms: _546  and  _547
REMARK  234  A    between atoms: _546  and  _549
REMARK  235  A    between atoms: _549  and  _550
REMARK  236  A    between atoms: _553  and  _555
REMARK  237  A    between atoms: _555  and  _556
REMARK  238  A    between atoms: _555  and  _558
REMARK  239  A    between atoms: _558  and  _559
REMARK  240  A    between atoms: _565  and  _567
REMARK  241  A    between atoms: _567  and  _568
REMARK  242  A    between atoms: _570  and  _572
REMARK  243  A    between atoms: _572  and  _573
REMARK  244  A    between atoms: _572  and  _575
REMARK  245  A    between atoms: _575  and  _576
REMARK  246  A    between atoms: _579  and  _581
REMARK  247  A    between atoms: _581  and  _582
REMARK  248  A    between atoms: _585  and  _587
REMARK  249  A    between atoms: _587  and  _588
REMARK  250  A    between atoms: _587  and  _590
REMARK  251  A    between atoms: _590  and  _591
REMARK  252  A    between atoms: _591  and  _592
REMARK  253  A    between atoms: _592  and  _593
REMARK                            x       y       z     vdW  Elec       q    Type
REMARK                         _______ _______ _______ _____ _____    ______ ____
ROOT
ATOM      1  O   HOH     1     -31.814 -10.717  -8.938  0.00  0.00    +0.000 OA
ENDROOT
TORSDOF 0
REMARK  Name = ../refined-set-2016/4asd/4asd_pocket.pdb
REMARK  253 active torsions:
REMARK  status: ('A' for Active; 'I' for Inactive)
REMARK    1  A    between atoms: _1  and  _3
REMARK    2  A    between atoms: _3  and  _4
REMARK    3  A    between atoms: _3  and  _6
REMARK    4  A    between atoms: _6  and  _7
REMARK    5  A    between atoms: _10  and  _12
REMARK    6  A    between atoms: _12  and  _13
REMARK    7  A    between atoms: _12  and  _15
REMARK    8  A    between atoms: _15  and  _16
REMARK    9  A    between atoms: _19  and  _21
REMARK   10  A    between atoms: _21  and  _22
REMARK   11  A    between atoms: _21  and  _24
REMARK   12  A    between atoms: _24  and  _25
REMARK   13  A    between atoms: _25  and  _26
REMARK   14  A    between atoms: _26  and  _27
REMARK   15  A    between atoms: _27  and  _28
REMARK   16  A    between atoms: _33  and  _34
REMARK   17  A    between atoms: _39  and  _41
REMARK   18  A    between atoms: _41  and  _42
REMARK   19  A    between atoms: _41  and  _44
REMARK   20  A    between atoms: _44  and  _45
REMARK   21  A    between atoms: _48  and  _50
REMARK   22  A    between atoms: _50  and  _51
REMARK   23  A    between atoms: _53  and  _55
REMARK   24  A    between atoms: _55  and  _56
REMARK   25  A    between atoms: _55  and  _58
REMARK   26  A    between atoms: _58  and  _59
REMARK   27  A    between atoms: _59  and  _60
REMARK   28  A    between atoms: _65  and  _67
REMARK   29  A    between atoms: _67  and  _68
REMARK   30  A    between atoms: _67  and  _70
REMARK   31  A    between atoms: _73  and  _75
REMARK   32  A    between atoms: _75  and  _76
REMARK   33  A    between atoms: _75  and  _78
REMARK   34  A    between atoms: _78  and  _79
REMARK   35  A    between atoms: _82  and  _84
REMARK   36  A    between atoms: _84  and  _85
REMARK   37  A    between atoms: _84  and  _87
REMARK   38  A    between atoms: _87  and  _88
REMARK   39  A    between atoms: _88  and  _89
REMARK   40  A    between atoms: _92  and  _94
REMARK   41  A    between atoms: _94  and  _95
REMARK   42  A    between atoms: _94  and  _97
REMARK   43  A    between atoms: _97  and  _98
REMARK   44  A    between atoms: _101  and  _103
REMARK   45  A    between atoms: _103  and  _104
REMARK   46  A    between atoms: _103  and  _106
REMARK   47  A    between atoms: _109  and  _111
REMARK   48  A    between atoms: _111  and  _112
REMARK   49  A    between atoms: _115  and  _117
REMARK   50  A    between atoms: _117  and  _118
REMARK   51  A    between atoms: _117  and  _120
REMARK   52  A    between atoms: _123  and  _125
REMARK   53  A    between atoms: _125  and  _126
REMARK   54  A    between atoms: _125  and  _128
REMARK   55  A    between atoms: _128  and  _129
REMARK   56  A    between atoms: _129  and  _130
REMARK   57  A    between atoms: _130  and  _131
REMARK   58  A    between atoms: _131  and  _132
REMARK   59  A    between atoms: _136  and  _138
REMARK   60  A    between atoms: _138  and  _139
REMARK   61  A    between atoms: _138  and  _141
REMARK   62  A    between atoms: _141  and  _142
REMARK   63  A    between atoms: _142  and  _143
REMARK   64  A    between atoms: _145  and  _147
REMARK   65  A    between atoms: _147  and  _148
REMARK   66  A    between atoms: _147  and  _150
REMARK   67  A    between atoms: _150  and  _151
REMARK   68  A    between atoms: _154  and  _156
REMARK   69  A    between atoms: _156  and  _157
REMARK   70  A    between atoms: _156  and  _159
REMARK   71  A    between atoms: _159  and  _160
REMARK   72  A    between atoms: _162  and  _164
REMARK   73  A    between atoms: _164  and  _165
REMARK   74  A    between atoms: _164  and  _167
REMARK   75  A    between atoms: _167  and  _168
REMARK   76  A    between atoms: _168  and  _169
REMARK   77  A    between atoms: _172  and  _174
REMARK   78  A    between atoms: _174  and  _175
REMARK   79  A    between atoms: _174  and  _177
REMARK   80  A    between atoms: _177  and  _178
REMARK   81  A    between atoms: _181  and  _183
REMARK   82  A    between atoms: _183  and  _184
REMARK   83  A    between atoms: _183  and  _186
REMARK   84  A    between atoms: _186  and  _187
REMARK   85  A    between atoms: _190  and  _192
REMARK   86  A    between atoms: _192  and  _193
REMARK   87  A    between atoms: _192  and  _195
REMARK   88  A    between atoms: _195  and  _196
REMARK   89  A    between atoms: _199  and  _201
REMARK   90  A    between atoms: _201  and  _202
REMARK   91  A    between atoms: _201  and  _204
REMARK   92  A    between atoms: _204  and  _205
REMARK   93  A    between atoms: _208  and  _210
REMARK   94  A    between atoms: _210  and  _211
REMARK   95  A    between atoms: _213  and  _215
REMARK   96  A    between atoms: _215  and  _216
REMARK   97  A    between atoms: _215  and  _218
REMARK   98  A    between atoms: _218  and  _219
REMARK   99  A    between atoms: _224  and  _226
REMARK  100  A    between atoms: _226  and  _227
REMARK  101  A    between atoms: _226  and  _229
REMARK  102  A    between atoms: _232  and  _234
REMARK  103  A    between atoms: _234  and  _235
REMARK  104  A    between atoms: _234  and  _237
REMARK  105  A    between atoms: _240  and  _242
REMARK  106  A    between atoms: _242  and  _243
REMARK  107  A    between atoms: _242  and  _245
REMARK  108  A    between atoms: _245  and  _246
REMARK  109  A    between atoms: _251  and  _253
REMARK  110  A    between atoms: _253  and  _254
REMARK  111  A    between atoms: _253  and  _256
REMARK  112  A    between atoms: _256  and  _257
REMARK  113  A    between atoms: _260  and  _262
REMARK  114  A    between atoms: _262  and  _263
REMARK  115  A    between atoms: _262  and  _265
REMARK  116  A    between atoms: _268  and  _270
REMARK  117  A    between atoms: _270  and  _271
REMARK  118  A    between atoms: _270  and  _273
REMARK  119  A    between atoms: _273  and  _274
REMARK  120  A    between atoms: _277  and  _279
REMARK  121  A    between atoms: _279  and  _280
REMARK  122  A    between atoms: _279  and  _282
REMARK  123  A    between atoms: _285  and  _287
REMARK  124  A    between atoms: _287  and  _288
REMARK  125  A    between atoms: _287  and  _290
REMARK  126  A    between atoms: _290  and  _291
REMARK  127  A    between atoms: _291  and  _292
REMARK  128  A    between atoms: _295  and  _297
REMARK  129  A    between atoms: _297  and  _298
REMARK  130  A    between atoms: _297  and  _300
REMARK  131  A    between atoms: _300  and  _301
REMARK  132  A    between atoms: _307  and  _309
REMARK  133  A    between atoms: _309  and  _310
REMARK  134  A    between atoms: _309  and  _312
REMARK  135  A    between atoms: _314  and  _316
REMARK  136  A    between atoms: _316  and  _317
REMARK  137  A    between atoms: _316  and  _319
REMARK  138  A    between atoms: _319  and  _320
REMARK  139  A    between atoms: _320  and  _321
REMARK  140  A    between atoms: _321  and  _322
REMARK  141  A    between atoms: _322  and  _323
REMARK  142  A    between atoms: _327  and  _329
REMARK  143  A    between atoms: _329  and  _330
REMARK  144  A    between atoms: _329  and  _332
REMARK  145  A    between atoms: _332  and  _333
REMARK  146  A    between atoms: _339  and  _341
REMARK  147  A    between atoms: _341  and  _342
REMARK  148  A    between atoms: _344  and  _346
REMARK  149  A    between atoms: _346  and  _347
REMARK  150  A    between atoms: _346  and  _349
REMARK  151  A    between atoms: _349  and  _350
REMARK  152  A    between atoms: _355  and  _357
REMARK  153  A    between atoms: _357  and  _358
REMARK  154  A    between atoms: _360  and  _362
REMARK  155  A    between atoms: _362  and  _363
REMARK  156  A    between atoms: _362  and  _365
REMARK  157  A    between atoms: _365  and  _366
REMARK  158  A    between atoms: _366  and  _367
REMARK  159  A    between atoms: _369  and  _371
REMARK  160  A    between atoms: _371  and  _372
REMARK  161  A    between atoms: _371  and  _374
REMARK  162  A    between atoms: _374  and  _375
REMARK  163  A    between atoms: _381  and  _383
REMARK  164  A    between atoms: _383  and  _384
REMARK  165  A    between atoms: _383  and  _386
REMARK  166  A    between atoms: _386  and  _387
REMARK  167  A    between atoms: _390  and  _392
REMARK  168  A    between atoms: _392  and  _393
REMARK  169  A    between atoms: _392  and  _395
REMARK  170  A    between atoms: _397  and  _399
REMARK  171  A    between atoms: _399  and  _400
REMARK  172  A    between atoms: _399  and  _402
REMARK  173  A    between atoms: _402  and  _403
REMARK  174  A    between atoms: _406  and  _408
REMARK  175  A    between atoms: _408  and  _409
REMARK  176  A    between atoms: _408  and  _411
REMARK  177  A    between atoms: _411  and  _412
REMARK  178  A    between atoms: _417  and  _419
REMARK  179  A    between atoms: _419  and  _420
REMARK  180  A    between atoms: _419  and  _422
REMARK  181  A    between atoms: _422  and  _423
REMARK  182  A    between atoms: _423  and  _424
REMARK  183  A    between atoms: _424  and  _425
REMARK  184  A    between atoms: _434  and  _436
REMARK  185  A    between atoms: _436  and  _437
REMARK  186  A    between atoms: _436  and  _439
REMARK  187  A    between atoms: _439  and  _440
REMARK  188  A    between atoms: _443  and  _445
REMARK  189  A    between atoms: _445  and  _446
REMARK  190  A    between atoms: _445  and  _448
REMARK  191  A    between atoms: _448  and  _449
REMARK  192  A    between atoms: _452  and  _454
REMARK  193  A    between atoms: _454  and  _455
REMARK  194  A    between atoms: _454  and  _457
REMARK  195  A    between atoms: _457  and  _458
REMARK  196  A    between atoms: _458  and  _459
REMARK  197  A    between atoms: _459  and  _460
REMARK  198  A    between atoms: _469  and  _471
REMARK  199  A    between atoms: _471  and  _472
REMARK  200  A    between atoms: _471  and  _474
REMARK  201  A    between atoms: _474  and  _475
REMARK  202  A    between atoms: _480  and  _482
REMARK  203  A    between atoms: _482  and  _483
REMARK  204  A    between atoms: _482  and  _485
REMARK  205  A    between atoms: _485  and  _486
REMARK  206  A    between atoms: _489  and  _491
REMARK  207  A    between atoms: _491  and  _492
REMARK  208  A    between atoms: _491  and  _494
REMARK  209  A    between atoms: _494  and  _495
REMARK  210  A    between atoms: _498  and  _500
REMARK  211  A    between atoms: _500  and  _501
REMARK  212  A    between atoms: _500  and  _503
REMARK  213  A    between atoms: _503  and  _504
REMARK  214  A    between atoms: _507  and  _509
REMARK  215  A    between atoms: _509  and  _510
REMARK  216  A    between atoms: _509  and  _512
REMARK  217  A    between atoms: _512  and  _513
REMARK  218  A    between atoms: _515  and  _517
REMARK  219  A    between atoms: _517  and  _518
REMARK  220  A    between atoms: _517  and  _520
REMARK  221  A    between atoms: _520  and  _521
REMARK  222  A    between atoms: _521  and  _522
REMARK  223  A    between atoms: _522  and  _523
REMARK  224  A    between atoms: _523  and  _524
REMARK  225  A    between atoms: _528  and  _530
REMARK  226  A    between atoms: _530  and  _531
REMARK  227  A    between atoms: _530  and  _533
REMARK  228  A    between atoms: _533  and  _534
REMARK  229  A    between atoms: _537  and  _539
REMARK  230  A    between atoms: _539  and  _540
REMARK  231  A    between atoms: _539  and  _542
REMARK  232  A    between atoms: _544  and  _546
REMARK  233  A    between atoms: _546  and  _547
REMARK  234  A    between atoms: _546  and  _549
REMARK  235  A    between atoms: _549  and  _550
REMARK  236  A    between atoms: _553  and  _555
REMARK  237  A    between atoms: _555  and  _556
REMARK  238  A    between atoms: _555  and  _558
REMARK  239  A    between atoms: _558  and  _559
REMARK  240  A    between atoms: _565  and  _567
REMARK  241  A    between atoms: _567  and  _568
REMARK  242  A    between atoms: _570  and  _572
REMARK  243  A    between atoms: _572  and  _573
REMARK  244  A    between atoms: _572  and  _575
REMARK  245  A    between atoms: _575  and  _576
REMARK  246  A    between atoms: _579  and  _581
REMARK  247  A    between atoms: _581  and  _582
REMARK  248  A    between atoms: _585  and  _587
REMARK  249  A    between atoms: _587  and  _588
REMARK  250  A    between atoms: _587  and  _590
REMARK  251  A    between atoms: _590  and  _591
REMARK  252  A    between atoms: _591  and  _592
REMARK  253  A    between atoms: _592  and  _593
REMARK                            x       y       z     vdW  Elec       q    Type
REMARK                         _______ _______ _______ _____ _____    ______ ____
ROOT
ATOM      1  O   HOH     1     -28.733  -9.633 -12.322  0.00  0.00    +0.000 OA
ENDROOT
TORSDOF 0
REMARK  Name = ../refined-set-2016/4asd/4asd_pocket.pdb
REMARK  253 active torsions:
REMARK  status: ('A' for Active; 'I' for Inactive)
REMARK    1  A    between atoms: _1  and  _3
REMARK    2  A    between atoms: _3  and  _4
REMARK    3  A    between atoms: _3  and  _6
REMARK    4  A    between atoms: _6  and  _7
REMARK    5  A    between atoms: _10  and  _12
REMARK    6  A    between atoms: _12  and  _13
REMARK    7  A    between atoms: _12  and  _15
REMARK    8  A    between atoms: _15  and  _16
REMARK    9  A    between atoms: _19  and  _21
REMARK   10  A    between atoms: _21  and  _22
REMARK   11  A    between atoms: _21  and  _24
REMARK   12  A    between atoms: _24  and  _25
REMARK   13  A    between atoms: _25  and  _26
REMARK   14  A    between atoms: _26  and  _27
REMARK   15  A    between atoms: _27  and  _28
REMARK   16  A    between atoms: _33  and  _34
REMARK   17  A    between atoms: _39  and  _41
REMARK   18  A    between atoms: _41  and  _42
REMARK   19  A    between atoms: _41  and  _44
REMARK   20  A    between atoms: _44  and  _45
REMARK   21  A    between atoms: _48  and  _50
REMARK   22  A    between atoms: _50  and  _51
REMARK   23  A    between atoms: _53  and  _55
REMARK   24  A    between atoms: _55  and  _56
REMARK   25  A    between atoms: _55  and  _58
REMARK   26  A    between atoms: _58  and  _59
REMARK   27  A    between atoms: _59  and  _60
REMARK   28  A    between atoms: _65  and  _67
REMARK   29  A    between atoms: _67  and  _68
REMARK   30  A    between atoms: _67  and  _70
REMARK   31  A    between atoms: _73  and  _75
REMARK   32  A    between atoms: _75  and  _76
REMARK   33  A    between atoms: _75  and  _78
REMARK   34  A    between atoms: _78  and  _79
REMARK   35  A    between atoms: _82  and  _84
REMARK   36  A    between atoms: _84  and  _85
REMARK   37  A    between atoms: _84  and  _87
REMARK   38  A    between atoms: _87  and  _88
REMARK   39  A    between atoms: _88  and  _89
REMARK   40  A    between atoms: _92  and  _94
REMARK   41  A    between atoms: _94  and  _95
REMARK   42  A    between atoms: _94  and  _97
REMARK   43  A    between atoms: _97  and  _98
REMARK   44  A    between atoms: _101  and  _103
REMARK   45  A    between atoms: _103  and  _104
REMARK   46  A    between atoms: _103  and  _106
REMARK   47  A    between atoms: _109  and  _111
REMARK   48  A    between atoms: _111  and  _112
REMARK   49  A    between atoms: _115  and  _117
REMARK   50  A    between atoms: _117  and  _118
REMARK   51  A    between atoms: _117  and  _120
REMARK   52  A    between atoms: _123  and  _125
REMARK   53  A    between atoms: _125  and  _126
REMARK   54  A    between atoms: _125  and  _128
REMARK   55  A    between atoms: _128  and  _129
REMARK   56  A    between atoms: _129  and  _130
REMARK   57  A    between atoms: _130  and  _131
REMARK   58  A    between atoms: _131  and  _132
REMARK   59  A    between atoms: _136  and  _138
REMARK   60  A    between atoms: _138  and  _139
REMARK   61  A    between atoms: _138  and  _141
REMARK   62  A    between atoms: _141  and  _142
REMARK   63  A    between atoms: _142  and  _143
REMARK   64  A    between atoms: _145  and  _147
REMARK   65  A    between atoms: _147  and  _148
REMARK   66  A    between atoms: _147  and  _150
REMARK   67  A    between atoms: _150  and  _151
REMARK   68  A    between atoms: _154  and  _156
REMARK   69  A    between atoms: _156  and  _157
REMARK   70  A    between atoms: _156  and  _159
REMARK   71  A    between atoms: _159  and  _160
REMARK   72  A    between atoms: _162  and  _164
REMARK   73  A    between atoms: _164  and  _165
REMARK   74  A    between atoms: _164  and  _167
REMARK   75  A    between atoms: _167  and  _168
REMARK   76  A    between atoms: _168  and  _169
REMARK   77  A    between atoms: _172  and  _174
REMARK   78  A    between atoms: _174  and  _175
REMARK   79  A    between atoms: _174  and  _177
REMARK   80  A    between atoms: _177  and  _178
REMARK   81  A    between atoms: _181  and  _183
REMARK   82  A    between atoms: _183  and  _184
REMARK   83  A    between atoms: _183  and  _186
REMARK   84  A    between atoms: _186  and  _187
REMARK   85  A    between atoms: _190  and  _192
REMARK   86  A    between atoms: _192  and  _193
REMARK   87  A    between atoms: _192  and  _195
REMARK   88  A    between atoms: _195  and  _196
REMARK   89  A    between atoms: _199  and  _201
REMARK   90  A    between atoms: _201  and  _202
REMARK   91  A    between atoms: _201  and  _204
REMARK   92  A    between atoms: _204  and  _205
REMARK   93  A    between atoms: _208  and  _210
REMARK   94  A    between atoms: _210  and  _211
REMARK   95  A    between atoms: _213  and  _215
REMARK   96  A    between atoms: _215  and  _216
REMARK   97  A    between atoms: _215  and  _218
REMARK   98  A    between atoms: _218  and  _219
REMARK   99  A    between atoms: _224  and  _226
REMARK  100  A    between atoms: _226  and  _227
REMARK  101  A    between atoms: _226  and  _229
REMARK  102  A    between atoms: _232  and  _234
REMARK  103  A    between atoms: _234  and  _235
REMARK  104  A    between atoms: _234  and  _237
REMARK  105  A    between atoms: _240  and  _242
REMARK  106  A    between atoms: _242  and  _243
REMARK  107  A    between atoms: _242  and  _245
REMARK  108  A    between atoms: _245  and  _246
REMARK  109  A    between atoms: _251  and  _253
REMARK  110  A    between atoms: _253  and  _254
REMARK  111  A    between atoms: _253  and  _256
REMARK  112  A    between atoms: _256  and  _257
REMARK  113  A    between atoms: _260  and  _262
REMARK  114  A    between atoms: _262  and  _263
REMARK  115  A    between atoms: _262  and  _265
REMARK  116  A    between atoms: _268  and  _270
REMARK  117  A    between atoms: _270  and  _271
REMARK  118  A    between atoms: _270  and  _273
REMARK  119  A    between atoms: _273  and  _274
REMARK  120  A    between atoms: _277  and  _279
REMARK  121  A    between atoms: _279  and  _280
REMARK  122  A    between atoms: _279  and  _282
REMARK  123  A    between atoms: _285  and  _287
REMARK  124  A    between atoms: _287  and  _288
REMARK  125  A    between atoms: _287  and  _290
REMARK  126  A    between atoms: _290  and  _291
REMARK  127  A    between atoms: _291  and  _292
REMARK  128  A    between atoms: _295  and  _297
REMARK  129  A    between atoms: _297  and  _298
REMARK  130  A    between atoms: _297  and  _300
REMARK  131  A    between atoms: _300  and  _301
REMARK  132  A    between atoms: _307  and  _309
REMARK  133  A    between atoms: _309  and  _310
REMARK  134  A    between atoms: _309  and  _312
REMARK  135  A    between atoms: _314  and  _316
REMARK  136  A    between atoms: _316  and  _317
REMARK  137  A    between atoms: _316  and  _319
REMARK  138  A    between atoms: _319  and  _320
REMARK  139  A    between atoms: _320  and  _321
REMARK  140  A    between atoms: _321  and  _322
REMARK  141  A    between atoms: _322  and  _323
REMARK  142  A    between atoms: _327  and  _329
REMARK  143  A    between atoms: _329  and  _330
REMARK  144  A    between atoms: _329  and  _332
REMARK  145  A    between atoms: _332  and  _333
REMARK  146  A    between atoms: _339  and  _341
REMARK  147  A    between atoms: _341  and  _342
REMARK  148  A    between atoms: _344  and  _346
REMARK  149  A    between atoms: _346  and  _347
REMARK  150  A    between atoms: _346  and  _349
REMARK  151  A    between atoms: _349  and  _350
REMARK  152  A    between atoms: _355  and  _357
REMARK  153  A    between atoms: _357  and  _358
REMARK  154  A    between atoms: _360  and  _362
REMARK  155  A    between atoms: _362  and  _363
REMARK  156  A    between atoms: _362  and  _365
REMARK  157  A    between atoms: _365  and  _366
REMARK  158  A    between atoms: _366  and  _367
REMARK  159  A    between atoms: _369  and  _371
REMARK  160  A    between atoms: _371  and  _372
REMARK  161  A    between atoms: _371  and  _374
REMARK  162  A    between atoms: _374  and  _375
REMARK  163  A    between atoms: _381  and  _383
REMARK  164  A    between atoms: _383  and  _384
REMARK  165  A    between atoms: _383  and  _386
REMARK  166  A    between atoms: _386  and  _387
REMARK  167  A    between atoms: _390  and  _392
REMARK  168  A    between atoms: _392  and  _393
REMARK  169  A    between atoms: _392  and  _395
REMARK  170  A    between atoms: _397  and  _399
REMARK  171  A    between atoms: _399  and  _400
REMARK  172  A    between atoms: _399  and  _402
REMARK  173  A    between atoms: _402  and  _403
REMARK  174  A    between atoms: _406  and  _408
REMARK  175  A    between atoms: _408  and  _409
REMARK  176  A    between atoms: _408  and  _411
REMARK  177  A    between atoms: _411  and  _412
REMARK  178  A    between atoms: _417  and  _419
REMARK  179  A    between atoms: _419  and  _420
REMARK  180  A    between atoms: _419  and  _422
REMARK  181  A    between atoms: _422  and  _423
REMARK  182  A    between atoms: _423  and  _424
REMARK  183  A    between atoms: _424  and  _425
REMARK  184  A    between atoms: _434  and  _436
REMARK  185  A    between atoms: _436  and  _437
REMARK  186  A    between atoms: _436  and  _439
REMARK  187  A    between atoms: _439  and  _440
REMARK  188  A    between atoms: _443  and  _445
REMARK  189  A    between atoms: _445  and  _446
REMARK  190  A    between atoms: _445  and  _448
REMARK  191  A    between atoms: _448  and  _449
REMARK  192  A    between atoms: _452  and  _454
REMARK  193  A    between atoms: _454  and  _455
REMARK  194  A    between atoms: _454  and  _457
REMARK  195  A    between atoms: _457  and  _458
REMARK  196  A    between atoms: _458  and  _459
REMARK  197  A    between atoms: _459  and  _460
REMARK  198  A    between atoms: _469  and  _471
REMARK  199  A    between atoms: _471  and  _472
REMARK  200  A    between atoms: _471  and  _474
REMARK  201  A    between atoms: _474  and  _475
REMARK  202  A    between atoms: _480  and  _482
REMARK  203  A    between atoms: _482  and  _483
REMARK  204  A    between atoms: _482  and  _485
REMARK  205  A    between atoms: _485  and  _486
REMARK  206  A    between atoms: _489  and  _491
REMARK  207  A    between atoms: _491  and  _492
REMARK  208  A    between atoms: _491  and  _494
REMARK  209  A    between atoms: _494  and  _495
REMARK  210  A    between atoms: _498  and  _500
REMARK  211  A    between atoms: _500  and  _501
REMARK  212  A    between atoms: _500  and  _503
REMARK  213  A    between atoms: _503  and  _504
REMARK  214  A    between atoms: _507  and  _509
REMARK  215  A    between atoms: _509  and  _510
REMARK  216  A    between atoms: _509  and  _512
REMARK  217  A    between atoms: _512  and  _513
REMARK  218  A    between atoms: _515  and  _517
REMARK  219  A    between atoms: _517  and  _518
REMARK  220  A    between atoms: _517  and  _520
REMARK  221  A    between atoms: _520  and  _521
REMARK  222  A    between atoms: _521  and  _522
REMARK  223  A    between atoms: _522  and  _523
REMARK  224  A    between atoms: _523  and  _524
REMARK  225  A    between atoms: _528  and  _530
REMARK  226  A    between atoms: _530  and  _531
REMARK  227  A    between atoms: _530  and  _533
REMARK  228  A    between atoms: _533  and  _534
REMARK  229  A    between atoms: _537  and  _539
REMARK  230  A    between atoms: _539  and  _540
REMARK  231  A    between atoms: _539  and  _542
REMARK  232  A    between atoms: _544  and  _546
REMARK  233  A    between atoms: _546  and  _547
REMARK  234  A    between atoms: _546  and  _549
REMARK  235  A    between atoms: _549  and  _550
REMARK  236  A    between atoms: _553  and  _555
REMARK  237  A    between atoms: _555  and  _556
REMARK  238  A    between atoms: _555  and  _558
REMARK  239  A    between atoms: _558  and  _559
REMARK  240  A    between atoms: _565  and  _567
REMARK  241  A    between atoms: _567  and  _568
REMARK  242  A    between atoms: _570  and  _572
REMARK  243  A    between atoms: _572  and  _573
REMARK  244  A    between atoms: _572  and  _575
REMARK  245  A    between atoms: _575  and  _576
REMARK  246  A    between atoms: _579  and  _581
REMARK  247  A    between atoms: _581  and  _582
REMARK  248  A    between atoms: _585  and  _587
REMARK  249  A    between atoms: _587  and  _588
REMARK  250  A    between atoms: _587  and  _590
REMARK  251  A    between atoms: _590  and  _591
REMARK  252  A    between atoms: _591  and  _592
REMARK  253  A    between atoms: _592  and  _593
REMARK                            x       y       z     vdW  Elec       q    Type
REMARK                         _______ _______ _______ _____ _____    ______ ____
ROOT
ATOM      1  O   HOH     1     -28.492  -3.026 -13.364  0.00  0.00    +0.000 OA
ENDROOT
TORSDOF 0
REMARK  Name = ../refined-set-2016/4asd/4asd_pocket.pdb
REMARK  253 active torsions:
REMARK  status: ('A' for Active; 'I' for Inactive)
REMARK    1  A    between atoms: _1  and  _3
REMARK    2  A    between atoms: _3  and  _4
REMARK    3  A    between atoms: _3  and  _6
REMARK    4  A    between atoms: _6  and  _7
REMARK    5  A    between atoms: _10  and  _12
REMARK    6  A    between atoms: _12  and  _13
REMARK    7  A    between atoms: _12  and  _15
REMARK    8  A    between atoms: _15  and  _16
REMARK    9  A    between atoms: _19  and  _21
REMARK   10  A    between atoms: _21  and  _22
REMARK   11  A    between atoms: _21  and  _24
REMARK   12  A    between atoms: _24  and  _25
REMARK   13  A    between atoms: _25  and  _26
REMARK   14  A    between atoms: _26  and  _27
REMARK   15  A    between atoms: _27  and  _28
REMARK   16  A    between atoms: _33  and  _34
REMARK   17  A    between atoms: _39  and  _41
REMARK   18  A    between atoms: _41  and  _42
REMARK   19  A    between atoms: _41  and  _44
REMARK   20  A    between atoms: _44  and  _45
REMARK   21  A    between atoms: _48  and  _50
REMARK   22  A    between atoms: _50  and  _51
REMARK   23  A    between atoms: _53  and  _55
REMARK   24  A    between atoms: _55  and  _56
REMARK   25  A    between atoms: _55  and  _58
REMARK   26  A    between atoms: _58  and  _59
REMARK   27  A    between atoms: _59  and  _60
REMARK   28  A    between atoms: _65  and  _67
REMARK   29  A    between atoms: _67  and  _68
REMARK   30  A    between atoms: _67  and  _70
REMARK   31  A    between atoms: _73  and  _75
REMARK   32  A    between atoms: _75  and  _76
REMARK   33  A    between atoms: _75  and  _78
REMARK   34  A    between atoms: _78  and  _79
REMARK   35  A    between atoms: _82  and  _84
REMARK   36  A    between atoms: _84  and  _85
REMARK   37  A    between atoms: _84  and  _87
REMARK   38  A    between atoms: _87  and  _88
REMARK   39  A    between atoms: _88  and  _89
REMARK   40  A    between atoms: _92  and  _94
REMARK   41  A    between atoms: _94  and  _95
REMARK   42  A    between atoms: _94  and  _97
REMARK   43  A    between atoms: _97  and  _98
REMARK   44  A    between atoms: _101  and  _103
REMARK   45  A    between atoms: _103  and  _104
REMARK   46  A    between atoms: _103  and  _106
REMARK   47  A    between atoms: _109  and  _111
REMARK   48  A    between atoms: _111  and  _112
REMARK   49  A    between atoms: _115  and  _117
REMARK   50  A    between atoms: _117  and  _118
REMARK   51  A    between atoms: _117  and  _120
REMARK   52  A    between atoms: _123  and  _125
REMARK   53  A    between atoms: _125  and  _126
REMARK   54  A    between atoms: _125  and  _128
REMARK   55  A    between atoms: _128  and  _129
REMARK   56  A    between atoms: _129  and  _130
REMARK   57  A    between atoms: _130  and  _131
REMARK   58  A    between atoms: _131  and  _132
REMARK   59  A    between atoms: _136  and  _138
REMARK   60  A    between atoms: _138  and  _139
REMARK   61  A    between atoms: _138  and  _141
REMARK   62  A    between atoms: _141  and  _142
REMARK   63  A    between atoms: _142  and  _143
REMARK   64  A    between atoms: _145  and  _147
REMARK   65  A    between atoms: _147  and  _148
REMARK   66  A    between atoms: _147  and  _150
REMARK   67  A    between atoms: _150  and  _151
REMARK   68  A    between atoms: _154  and  _156
REMARK   69  A    between atoms: _156  and  _157
REMARK   70  A    between atoms: _156  and  _159
REMARK   71  A    between atoms: _159  and  _160
REMARK   72  A    between atoms: _162  and  _164
REMARK   73  A    between atoms: _164  and  _165
REMARK   74  A    between atoms: _164  and  _167
REMARK   75  A    between atoms: _167  and  _168
REMARK   76  A    between atoms: _168  and  _169
REMARK   77  A    between atoms: _172  and  _174
REMARK   78  A    between atoms: _174  and  _175
REMARK   79  A    between atoms: _174  and  _177
REMARK   80  A    between atoms: _177  and  _178
REMARK   81  A    between atoms: _181  and  _183
REMARK   82  A    between atoms: _183  and  _184
REMARK   83  A    between atoms: _183  and  _186
REMARK   84  A    between atoms: _186  and  _187
REMARK   85  A    between atoms: _190  and  _192
REMARK   86  A    between atoms: _192  and  _193
REMARK   87  A    between atoms: _192  and  _195
REMARK   88  A    between atoms: _195  and  _196
REMARK   89  A    between atoms: _199  and  _201
REMARK   90  A    between atoms: _201  and  _202
REMARK   91  A    between atoms: _201  and  _204
REMARK   92  A    between atoms: _204  and  _205
REMARK   93  A    between atoms: _208  and  _210
REMARK   94  A    between atoms: _210  and  _211
REMARK   95  A    between atoms: _213  and  _215
REMARK   96  A    between atoms: _215  and  _216
REMARK   97  A    between atoms: _215  and  _218
REMARK   98  A    between atoms: _218  and  _219
REMARK   99  A    between atoms: _224  and  _226
REMARK  100  A    between atoms: _226  and  _227
REMARK  101  A    between atoms: _226  and  _229
REMARK  102  A    between atoms: _232  and  _234
REMARK  103  A    between atoms: _234  and  _235
REMARK  104  A    between atoms: _234  and  _237
REMARK  105  A    between atoms: _240  and  _242
REMARK  106  A    between atoms: _242  and  _243
REMARK  107  A    between atoms: _242  and  _245
REMARK  108  A    between atoms: _245  and  _246
REMARK  109  A    between atoms: _251  and  _253
REMARK  110  A    between atoms: _253  and  _254
REMARK  111  A    between atoms: _253  and  _256
REMARK  112  A    between atoms: _256  and  _257
REMARK  113  A    between atoms: _260  and  _262
REMARK  114  A    between atoms: _262  and  _263
REMARK  115  A    between atoms: _262  and  _265
REMARK  116  A    between atoms: _268  and  _270
REMARK  117  A    between atoms: _270  and  _271
REMARK  118  A    between atoms: _270  and  _273
REMARK  119  A    between atoms: _273  and  _274
REMARK  120  A    between atoms: _277  and  _279
REMARK  121  A    between atoms: _279  and  _280
REMARK  122  A    between atoms: _279  and  _282
REMARK  123  A    between atoms: _285  and  _287
REMARK  124  A    between atoms: _287  and  _288
REMARK  125  A    between atoms: _287  and  _290
REMARK  126  A    between atoms: _290  and  _291
REMARK  127  A    between atoms: _291  and  _292
REMARK  128  A    between atoms: _295  and  _297
REMARK  129  A    between atoms: _297  and  _298
REMARK  130  A    between atoms: _297  and  _300
REMARK  131  A    between atoms: _300  and  _301
REMARK  132  A    between atoms: _307  and  _309
REMARK  133  A    between atoms: _309  and  _310
REMARK  134  A    between atoms: _309  and  _312
REMARK  135  A    between atoms: _314  and  _316
REMARK  136  A    between atoms: _316  and  _317
REMARK  137  A    between atoms: _316  and  _319
REMARK  138  A    between atoms: _319  and  _320
REMARK  139  A    between atoms: _320  and  _321
REMARK  140  A    between atoms: _321  and  _322
REMARK  141  A    between atoms: _322  and  _323
REMARK  142  A    between atoms: _327  and  _329
REMARK  143  A    between atoms: _329  and  _330
REMARK  144  A    between atoms: _329  and  _332
REMARK  145  A    between atoms: _332  and  _333
REMARK  146  A    between atoms: _339  and  _341
REMARK  147  A    between atoms: _341  and  _342
REMARK  148  A    between atoms: _344  and  _346
REMARK  149  A    between atoms: _346  and  _347
REMARK  150  A    between atoms: _346  and  _349
REMARK  151  A    between atoms: _349  and  _350
REMARK  152  A    between atoms: _355  and  _357
REMARK  153  A    between atoms: _357  and  _358
REMARK  154  A    between atoms: _360  and  _362
REMARK  155  A    between atoms: _362  and  _363
REMARK  156  A    between atoms: _362  and  _365
REMARK  157  A    between atoms: _365  and  _366
REMARK  158  A    between atoms: _366  and  _367
REMARK  159  A    between atoms: _369  and  _371
REMARK  160  A    between atoms: _371  and  _372
REMARK  161  A    between atoms: _371  and  _374
REMARK  162  A    between atoms: _374  and  _375
REMARK  163  A    between atoms: _381  and  _383
REMARK  164  A    between atoms: _383  and  _384
REMARK  165  A    between atoms: _383  and  _386
REMARK  166  A    between atoms: _386  and  _387
REMARK  167  A    between atoms: _390  and  _392
REMARK  168  A    between atoms: _392  and  _393
REMARK  169  A    between atoms: _392  and  _395
REMARK  170  A    between atoms: _397  and  _399
REMARK  171  A    between atoms: _399  and  _400
REMARK  172  A    between atoms: _399  and  _402
REMARK  173  A    between atoms: _402  and  _403
REMARK  174  A    between atoms: _406  and  _408
REMARK  175  A    between atoms: _408  and  _409
REMARK  176  A    between atoms: _408  and  _411
REMARK  177  A    between atoms: _411  and  _412
REMARK  178  A    between atoms: _417  and  _419
REMARK  179  A    between atoms: _419  and  _420
REMARK  180  A    between atoms: _419  and  _422
REMARK  181  A    between atoms: _422  and  _423
REMARK  182  A    between atoms: _423  and  _424
REMARK  183  A    between atoms: _424  and  _425
REMARK  184  A    between atoms: _434  and  _436
REMARK  185  A    between atoms: _436  and  _437
REMARK  186  A    between atoms: _436  and  _439
REMARK  187  A    between atoms: _439  and  _440
REMARK  188  A    between atoms: _443  and  _445
REMARK  189  A    between atoms: _445  and  _446
REMARK  190  A    between atoms: _445  and  _448
REMARK  191  A    between atoms: _448  and  _449
REMARK  192  A    between atoms: _452  and  _454
REMARK  193  A    between atoms: _454  and  _455
REMARK  194  A    between atoms: _454  and  _457
REMARK  195  A    between atoms: _457  and  _458
REMARK  196  A    between atoms: _458  and  _459
REMARK  197  A    between atoms: _459  and  _460
REMARK  198  A    between atoms: _469  and  _471
REMARK  199  A    between atoms: _471  and  _472
REMARK  200  A    between atoms: _471  and  _474
REMARK  201  A    between atoms: _474  and  _475
REMARK  202  A    between atoms: _480  and  _482
REMARK  203  A    between atoms: _482  and  _483
REMARK  204  A    between atoms: _482  and  _485
REMARK  205  A    between atoms: _485  and  _486
REMARK  206  A    between atoms: _489  and  _491
REMARK  207  A    between atoms: _491  and  _492
REMARK  208  A    between atoms: _491  and  _494
REMARK  209  A    between atoms: _494  and  _495
REMARK  210  A    between atoms: _498  and  _500
REMARK  211  A    between atoms: _500  and  _501
REMARK  212  A    between atoms: _500  and  _503
REMARK  213  A    between atoms: _503  and  _504
REMARK  214  A    between atoms: _507  and  _509
REMARK  215  A    between atoms: _509  and  _510
REMARK  216  A    between atoms: _509  and  _512
REMARK  217  A    between atoms: _512  and  _513
REMARK  218  A    between atoms: _515  and  _517
REMARK  219  A    between atoms: _517  and  _518
REMARK  220  A    between atoms: _517  and  _520
REMARK  221  A    between atoms: _520  and  _521
REMARK  222  A    between atoms: _521  and  _522
REMARK  223  A    between atoms: _522  and  _523
REMARK  224  A    between atoms: _523  and  _524
REMARK  225  A    between atoms: _528  and  _530
REMARK  226  A    between atoms: _530  and  _531
REMARK  227  A    between atoms: _530  and  _533
REMARK  228  A    between atoms: _533  and  _534
REMARK  229  A    between atoms: _537  and  _539
REMARK  230  A    between atoms: _539  and  _540
REMARK  231  A    between atoms: _539  and  _542
REMARK  232  A    between atoms: _544  and  _546
REMARK  233  A    between atoms: _546  and  _547
REMARK  234  A    between atoms: _546  and  _549
REMARK  235  A    between atoms: _549  and  _550
REMARK  236  A    between atoms: _553  and  _555
REMARK  237  A    between atoms: _555  and  _556
REMARK  238  A    between atoms: _555  and  _558
REMARK  239  A    between atoms: _558  and  _559
REMARK  240  A    between atoms: _565  and  _567
REMARK  241  A    between atoms: _567  and  _568
REMARK  242  A    between atoms: _570  and  _572
REMARK  243  A    between atoms: _572  and  _573
REMARK  244  A    between atoms: _572  and  _575
REMARK  245  A    between atoms: _575  and  _576
REMARK  246  A    between atoms: _579  and  _581
REMARK  247  A    between atoms: _581  and  _582
REMARK  248  A    between atoms: _585  and  _587
REMARK  249  A    between atoms: _587  and  _588
REMARK  250  A    between atoms: _587  and  _590
REMARK  251  A    between atoms: _590  and  _591
REMARK  252  A    between atoms: _591  and  _592
REMARK  253  A    between atoms: _592  and  _593
REMARK                            x       y       z     vdW  Elec       q    Type
REMARK                         _______ _______ _______ _____ _____    ______ ____
ROOT
ATOM      1  O   HOH     1     -32.897   2.304  -7.602  0.00  0.00    +0.000 OA
ENDROOT
TORSDOF 0
REMARK  Name = ../refined-set-2016/4asd/4asd_pocket.pdb
REMARK  253 active torsions:
REMARK  status: ('A' for Active; 'I' for Inactive)
REMARK    1  A    between atoms: _1  and  _3
REMARK    2  A    between atoms: _3  and  _4
REMARK    3  A    between atoms: _3  and  _6
REMARK    4  A    between atoms: _6  and  _7
REMARK    5  A    between atoms: _10  and  _12
REMARK    6  A    between atoms: _12  and  _13
REMARK    7  A    between atoms: _12  and  _15
REMARK    8  A    between atoms: _15  and  _16
REMARK    9  A    between atoms: _19  and  _21
REMARK   10  A    between atoms: _21  and  _22
REMARK   11  A    between atoms: _21  and  _24
REMARK   12  A    between atoms: _24  and  _25
REMARK   13  A    between atoms: _25  and  _26
REMARK   14  A    between atoms: _26  and  _27
REMARK   15  A    between atoms: _27  and  _28
REMARK   16  A    between atoms: _33  and  _34
REMARK   17  A    between atoms: _39  and  _41
REMARK   18  A    between atoms: _41  and  _42
REMARK   19  A    between atoms: _41  and  _44
REMARK   20  A    between atoms: _44  and  _45
REMARK   21  A    between atoms: _48  and  _50
REMARK   22  A    between atoms: _50  and  _51
REMARK   23  A    between atoms: _53  and  _55
REMARK   24  A    between atoms: _55  and  _56
REMARK   25  A    between atoms: _55  and  _58
REMARK   26  A    between atoms: _58  and  _59
REMARK   27  A    between atoms: _59  and  _60
REMARK   28  A    between atoms: _65  and  _67
REMARK   29  A    between atoms: _67  and  _68
REMARK   30  A    between atoms: _67  and  _70
REMARK   31  A    between atoms: _73  and  _75
REMARK   32  A    between atoms: _75  and  _76
REMARK   33  A    between atoms: _75  and  _78
REMARK   34  A    between atoms: _78  and  _79
REMARK   35  A    between atoms: _82  and  _84
REMARK   36  A    between atoms: _84  and  _85
REMARK   37  A    between atoms: _84  and  _87
REMARK   38  A    between atoms: _87  and  _88
REMARK   39  A    between atoms: _88  and  _89
REMARK   40  A    between atoms: _92  and  _94
REMARK   41  A    between atoms: _94  and  _95
REMARK   42  A    between atoms: _94  and  _97
REMARK   43  A    between atoms: _97  and  _98
REMARK   44  A    between atoms: _101  and  _103
REMARK   45  A    between atoms: _103  and  _104
REMARK   46  A    between atoms: _103  and  _106
REMARK   47  A    between atoms: _109  and  _111
REMARK   48  A    between atoms: _111  and  _112
REMARK   49  A    between atoms: _115  and  _117
REMARK   50  A    between atoms: _117  and  _118
REMARK   51  A    between atoms: _117  and  _120
REMARK   52  A    between atoms: _123  and  _125
REMARK   53  A    between atoms: _125  and  _126
REMARK   54  A    between atoms: _125  and  _128
REMARK   55  A    between atoms: _128  and  _129
REMARK   56  A    between atoms: _129  and  _130
REMARK   57  A    between atoms: _130  and  _131
REMARK   58  A    between atoms: _131  and  _132
REMARK   59  A    between atoms: _136  and  _138
REMARK   60  A    between atoms: _138  and  _139
REMARK   61  A    between atoms: _138  and  _141
REMARK   62  A    between atoms: _141  and  _142
REMARK   63  A    between atoms: _142  and  _143
REMARK   64  A    between atoms: _145  and  _147
REMARK   65  A    between atoms: _147  and  _148
REMARK   66  A    between atoms: _147  and  _150
REMARK   67  A    between atoms: _150  and  _151
REMARK   68  A    between atoms: _154  and  _156
REMARK   69  A    between atoms: _156  and  _157
REMARK   70  A    between atoms: _156  and  _159
REMARK   71  A    between atoms: _159  and  _160
REMARK   72  A    between atoms: _162  and  _164
REMARK   73  A    between atoms: _164  and  _165
REMARK   74  A    between atoms: _164  and  _167
REMARK   75  A    between atoms: _167  and  _168
REMARK   76  A    between atoms: _168  and  _169
REMARK   77  A    between atoms: _172  and  _174
REMARK   78  A    between atoms: _174  and  _175
REMARK   79  A    between atoms: _174  and  _177
REMARK   80  A    between atoms: _177  and  _178
REMARK   81  A    between atoms: _181  and  _183
REMARK   82  A    between atoms: _183  and  _184
REMARK   83  A    between atoms: _183  and  _186
REMARK   84  A    between atoms: _186  and  _187
REMARK   85  A    between atoms: _190  and  _192
REMARK   86  A    between atoms: _192  and  _193
REMARK   87  A    between atoms: _192  and  _195
REMARK   88  A    between atoms: _195  and  _196
REMARK   89  A    between atoms: _199  and  _201
REMARK   90  A    between atoms: _201  and  _202
REMARK   91  A    between atoms: _201  and  _204
REMARK   92  A    between atoms: _204  and  _205
REMARK   93  A    between atoms: _208  and  _210
REMARK   94  A    between atoms: _210  and  _211
REMARK   95  A    between atoms: _213  and  _215
REMARK   96  A    between atoms: _215  and  _216
REMARK   97  A    between atoms: _215  and  _218
REMARK   98  A    between atoms: _218  and  _219
REMARK   99  A    between atoms: _224  and  _226
REMARK  100  A    between atoms: _226  and  _227
REMARK  101  A    between atoms: _226  and  _229
REMARK  102  A    between atoms: _232  and  _234
REMARK  103  A    between atoms: _234  and  _235
REMARK  104  A    between atoms: _234  and  _237
REMARK  105  A    between atoms: _240  and  _242
REMARK  106  A    between atoms: _242  and  _243
REMARK  107  A    between atoms: _242  and  _245
REMARK  108  A    between atoms: _245  and  _246
REMARK  109  A    between atoms: _251  and  _253
REMARK  110  A    between atoms: _253  and  _254
REMARK  111  A    between atoms: _253  and  _256
REMARK  112  A    between atoms: _256  and  _257
REMARK  113  A    between atoms: _260  and  _262
REMARK  114  A    between atoms: _262  and  _263
REMARK  115  A    between atoms: _262  and  _265
REMARK  116  A    between atoms: _268  and  _270
REMARK  117  A    between atoms: _270  and  _271
REMARK  118  A    between atoms: _270  and  _273
REMARK  119  A    between atoms: _273  and  _274
REMARK  120  A    between atoms: _277  and  _279
REMARK  121  A    between atoms: _279  and  _280
REMARK  122  A    between atoms: _279  and  _282
REMARK  123  A    between atoms: _285  and  _287
REMARK  124  A    between atoms: _287  and  _288
REMARK  125  A    between atoms: _287  and  _290
REMARK  126  A    between atoms: _290  and  _291
REMARK  127  A    between atoms: _291  and  _292
REMARK  128  A    between atoms: _295  and  _297
REMARK  129  A    between atoms: _297  and  _298
REMARK  130  A    between atoms: _297  and  _300
REMARK  131  A    between atoms: _300  and  _301
REMARK  132  A    between atoms: _307  and  _309
REMARK  133  A    between atoms: _309  and  _310
REMARK  134  A    between atoms: _309  and  _312
REMARK  135  A    between atoms: _314  and  _316
REMARK  136  A    between atoms: _316  and  _317
REMARK  137  A    between atoms: _316  and  _319
REMARK  138  A    between atoms: _319  and  _320
REMARK  139  A    between atoms: _320  and  _321
REMARK  140  A    between atoms: _321  and  _322
REMARK  141  A    between atoms: _322  and  _323
REMARK  142  A    between atoms: _327  and  _329
REMARK  143  A    between atoms: _329  and  _330
REMARK  144  A    between atoms: _329  and  _332
REMARK  145  A    between atoms: _332  and  _333
REMARK  146  A    between atoms: _339  and  _341
REMARK  147  A    between atoms: _341  and  _342
REMARK  148  A    between atoms: _344  and  _346
REMARK  149  A    between atoms: _346  and  _347
REMARK  150  A    between atoms: _346  and  _349
REMARK  151  A    between atoms: _349  and  _350
REMARK  152  A    between atoms: _355  and  _357
REMARK  153  A    between atoms: _357  and  _358
REMARK  154  A    between atoms: _360  and  _362
REMARK  155  A    between atoms: _362  and  _363
REMARK  156  A    between atoms: _362  and  _365
REMARK  157  A    between atoms: _365  and  _366
REMARK  158  A    between atoms: _366  and  _367
REMARK  159  A    between atoms: _369  and  _371
REMARK  160  A    between atoms: _371  and  _372
REMARK  161  A    between atoms: _371  and  _374
REMARK  162  A    between atoms: _374  and  _375
REMARK  163  A    between atoms: _381  and  _383
REMARK  164  A    between atoms: _383  and  _384
REMARK  165  A    between atoms: _383  and  _386
REMARK  166  A    between atoms: _386  and  _387
REMARK  167  A    between atoms: _390  and  _392
REMARK  168  A    between atoms: _392  and  _393
REMARK  169  A    between atoms: _392  and  _395
REMARK  170  A    between atoms: _397  and  _399
REMARK  171  A    between atoms: _399  and  _400
REMARK  172  A    between atoms: _399  and  _402
REMARK  173  A    between atoms: _402  and  _403
REMARK  174  A    between atoms: _406  and  _408
REMARK  175  A    between atoms: _408  and  _409
REMARK  176  A    between atoms: _408  and  _411
REMARK  177  A    between atoms: _411  and  _412
REMARK  178  A    between atoms: _417  and  _419
REMARK  179  A    between atoms: _419  and  _420
REMARK  180  A    between atoms: _419  and  _422
REMARK  181  A    between atoms: _422  and  _423
REMARK  182  A    between atoms: _423  and  _424
REMARK  183  A    between atoms: _424  and  _425
REMARK  184  A    between atoms: _434  and  _436
REMARK  185  A    between atoms: _436  and  _437
REMARK  186  A    between atoms: _436  and  _439
REMARK  187  A    between atoms: _439  and  _440
REMARK  188  A    between atoms: _443  and  _445
REMARK  189  A    between atoms: _445  and  _446
REMARK  190  A    between atoms: _445  and  _448
REMARK  191  A    between atoms: _448  and  _449
REMARK  192  A    between atoms: _452  and  _454
REMARK  193  A    between atoms: _454  and  _455
REMARK  194  A    between atoms: _454  and  _457
REMARK  195  A    between atoms: _457  and  _458
REMARK  196  A    between atoms: _458  and  _459
REMARK  197  A    between atoms: _459  and  _460
REMARK  198  A    between atoms: _469  and  _471
REMARK  199  A    between atoms: _471  and  _472
REMARK  200  A    between atoms: _471  and  _474
REMARK  201  A    between atoms: _474  and  _475
REMARK  202  A    between atoms: _480  and  _482
REMARK  203  A    between atoms: _482  and  _483
REMARK  204  A    between atoms: _482  and  _485
REMARK  205  A    between atoms: _485  and  _486
REMARK  206  A    between atoms: _489  and  _491
REMARK  207  A    between atoms: _491  and  _492
REMARK  208  A    between atoms: _491  and  _494
REMARK  209  A    between atoms: _494  and  _495
REMARK  210  A    between atoms: _498  and  _500
REMARK  211  A    between atoms: _500  and  _501
REMARK  212  A    between atoms: _500  and  _503
REMARK  213  A    between atoms: _503  and  _504
REMARK  214  A    between atoms: _507  and  _509
REMARK  215  A    between atoms: _509  and  _510
REMARK  216  A    between atoms: _509  and  _512
REMARK  217  A    between atoms: _512  and  _513
REMARK  218  A    between atoms: _515  and  _517
REMARK  219  A    between atoms: _517  and  _518
REMARK  220  A    between atoms: _517  and  _520
REMARK  221  A    between atoms: _520  and  _521
REMARK  222  A    between atoms: _521  and  _522
REMARK  223  A    between atoms: _522  and  _523
REMARK  224  A    between atoms: _523  and  _524
REMARK  225  A    between atoms: _528  and  _530
REMARK  226  A    between atoms: _530  and  _531
REMARK  227  A    between atoms: _530  and  _533
REMARK  228  A    between atoms: _533  and  _534
REMARK  229  A    between atoms: _537  and  _539
REMARK  230  A    between atoms: _539  and  _540
REMARK  231  A    between atoms: _539  and  _542
REMARK  232  A    between atoms: _544  and  _546
REMARK  233  A    between atoms: _546  and  _547
REMARK  234  A    between atoms: _546  and  _549
REMARK  235  A    between atoms: _549  and  _550
REMARK  236  A    between atoms: _553  and  _555
REMARK  237  A    between atoms: _555  and  _556
REMARK  238  A    between atoms: _555  and  _558
REMARK  239  A    between atoms: _558  and  _559
REMARK  240  A    between atoms: _565  and  _567
REMARK  241  A    between atoms: _567  and  _568
REMARK  242  A    between atoms: _570  and  _572
REMARK  243  A    between atoms: _572  and  _573
REMARK  244  A    between atoms: _572  and  _575
REMARK  245  A    between atoms: _575  and  _576
REMARK  246  A    between atoms: _579  and  _581
REMARK  247  A    between atoms: _581  and  _582
REMARK  248  A    between atoms: _585  and  _587
REMARK  249  A    between atoms: _587  and  _588
REMARK  250  A    between atoms: _587  and  _590
REMARK  251  A    between atoms: _590  and  _591
REMARK  252  A    between atoms: _591  and  _592
REMARK  253  A    between atoms: _592  and  _593
REMARK                            x       y       z     vdW  Elec       q    Type
REMARK                         _______ _______ _______ _____ _____    ______ ____
ROOT
ATOM      1  O   HOH     1     -32.767   3.959  -9.158  0.00  0.00    +0.000 OA
ENDROOT
TORSDOF 0
REMARK  Name = ../refined-set-2016/4asd/4asd_pocket.pdb
REMARK  253 active torsions:
REMARK  status: ('A' for Active; 'I' for Inactive)
REMARK    1  A    between atoms: _1  and  _3
REMARK    2  A    between atoms: _3  and  _4
REMARK    3  A    between atoms: _3  and  _6
REMARK    4  A    between atoms: _6  and  _7
REMARK    5  A    between atoms: _10  and  _12
REMARK    6  A    between atoms: _12  and  _13
REMARK    7  A    between atoms: _12  and  _15
REMARK    8  A    between atoms: _15  and  _16
REMARK    9  A    between atoms: _19  and  _21
REMARK   10  A    between atoms: _21  and  _22
REMARK   11  A    between atoms: _21  and  _24
REMARK   12  A    between atoms: _24  and  _25
REMARK   13  A    between atoms: _25  and  _26
REMARK   14  A    between atoms: _26  and  _27
REMARK   15  A    between atoms: _27  and  _28
REMARK   16  A    between atoms: _33  and  _34
REMARK   17  A    between atoms: _39  and  _41
REMARK   18  A    between atoms: _41  and  _42
REMARK   19  A    between atoms: _41  and  _44
REMARK   20  A    between atoms: _44  and  _45
REMARK   21  A    between atoms: _48  and  _50
REMARK   22  A    between atoms: _50  and  _51
REMARK   23  A    between atoms: _53  and  _55
REMARK   24  A    between atoms: _55  and  _56
REMARK   25  A    between atoms: _55  and  _58
REMARK   26  A    between atoms: _58  and  _59
REMARK   27  A    between atoms: _59  and  _60
REMARK   28  A    between atoms: _65  and  _67
REMARK   29  A    between atoms: _67  and  _68
REMARK   30  A    between atoms: _67  and  _70
REMARK   31  A    between atoms: _73  and  _75
REMARK   32  A    between atoms: _75  and  _76
REMARK   33  A    between atoms: _75  and  _78
REMARK   34  A    between atoms: _78  and  _79
REMARK   35  A    between atoms: _82  and  _84
REMARK   36  A    between atoms: _84  and  _85
REMARK   37  A    between atoms: _84  and  _87
REMARK   38  A    between atoms: _87  and  _88
REMARK   39  A    between atoms: _88  and  _89
REMARK   40  A    between atoms: _92  and  _94
REMARK   41  A    between atoms: _94  and  _95
REMARK   42  A    between atoms: _94  and  _97
REMARK   43  A    between atoms: _97  and  _98
REMARK   44  A    between atoms: _101  and  _103
REMARK   45  A    between atoms: _103  and  _104
REMARK   46  A    between atoms: _103  and  _106
REMARK   47  A    between atoms: _109  and  _111
REMARK   48  A    between atoms: _111  and  _112
REMARK   49  A    between atoms: _115  and  _117
REMARK   50  A    between atoms: _117  and  _118
REMARK   51  A    between atoms: _117  and  _120
REMARK   52  A    between atoms: _123  and  _125
REMARK   53  A    between atoms: _125  and  _126
REMARK   54  A    between atoms: _125  and  _128
REMARK   55  A    between atoms: _128  and  _129
REMARK   56  A    between atoms: _129  and  _130
REMARK   57  A    between atoms: _130  and  _131
REMARK   58  A    between atoms: _131  and  _132
REMARK   59  A    between atoms: _136  and  _138
REMARK   60  A    between atoms: _138  and  _139
REMARK   61  A    between atoms: _138  and  _141
REMARK   62  A    between atoms: _141  and  _142
REMARK   63  A    between atoms: _142  and  _143
REMARK   64  A    between atoms: _145  and  _147
REMARK   65  A    between atoms: _147  and  _148
REMARK   66  A    between atoms: _147  and  _150
REMARK   67  A    between atoms: _150  and  _151
REMARK   68  A    between atoms: _154  and  _156
REMARK   69  A    between atoms: _156  and  _157
REMARK   70  A    between atoms: _156  and  _159
REMARK   71  A    between atoms: _159  and  _160
REMARK   72  A    between atoms: _162  and  _164
REMARK   73  A    between atoms: _164  and  _165
REMARK   74  A    between atoms: _164  and  _167
REMARK   75  A    between atoms: _167  and  _168
REMARK   76  A    between atoms: _168  and  _169
REMARK   77  A    between atoms: _172  and  _174
REMARK   78  A    between atoms: _174  and  _175
REMARK   79  A    between atoms: _174  and  _177
REMARK   80  A    between atoms: _177  and  _178
REMARK   81  A    between atoms: _181  and  _183
REMARK   82  A    between atoms: _183  and  _184
REMARK   83  A    between atoms: _183  and  _186
REMARK   84  A    between atoms: _186  and  _187
REMARK   85  A    between atoms: _190  and  _192
REMARK   86  A    between atoms: _192  and  _193
REMARK   87  A    between atoms: _192  and  _195
REMARK   88  A    between atoms: _195  and  _196
REMARK   89  A    between atoms: _199  and  _201
REMARK   90  A    between atoms: _201  and  _202
REMARK   91  A    between atoms: _201  and  _204
REMARK   92  A    between atoms: _204  and  _205
REMARK   93  A    between atoms: _208  and  _210
REMARK   94  A    between atoms: _210  and  _211
REMARK   95  A    between atoms: _213  and  _215
REMARK   96  A    between atoms: _215  and  _216
REMARK   97  A    between atoms: _215  and  _218
REMARK   98  A    between atoms: _218  and  _219
REMARK   99  A    between atoms: _224  and  _226
REMARK  100  A    between atoms: _226  and  _227
REMARK  101  A    between atoms: _226  and  _229
REMARK  102  A    between atoms: _232  and  _234
REMARK  103  A    between atoms: _234  and  _235
REMARK  104  A    between atoms: _234  and  _237
REMARK  105  A    between atoms: _240  and  _242
REMARK  106  A    between atoms: _242  and  _243
REMARK  107  A    between atoms: _242  and  _245
REMARK  108  A    between atoms: _245  and  _246
REMARK  109  A    between atoms: _251  and  _253
REMARK  110  A    between atoms: _253  and  _254
REMARK  111  A    between atoms: _253  and  _256
REMARK  112  A    between atoms: _256  and  _257
REMARK  113  A    between atoms: _260  and  _262
REMARK  114  A    between atoms: _262  and  _263
REMARK  115  A    between atoms: _262  and  _265
REMARK  116  A    between atoms: _268  and  _270
REMARK  117  A    between atoms: _270  and  _271
REMARK  118  A    between atoms: _270  and  _273
REMARK  119  A    between atoms: _273  and  _274
REMARK  120  A    between atoms: _277  and  _279
REMARK  121  A    between atoms: _279  and  _280
REMARK  122  A    between atoms: _279  and  _282
REMARK  123  A    between atoms: _285  and  _287
REMARK  124  A    between atoms: _287  and  _288
REMARK  125  A    between atoms: _287  and  _290
REMARK  126  A    between atoms: _290  and  _291
REMARK  127  A    between atoms: _291  and  _292
REMARK  128  A    between atoms: _295  and  _297
REMARK  129  A    between atoms: _297  and  _298
REMARK  130  A    between atoms: _297  and  _300
REMARK  131  A    between atoms: _300  and  _301
REMARK  132  A    between atoms: _307  and  _309
REMARK  133  A    between atoms: _309  and  _310
REMARK  134  A    between atoms: _309  and  _312
REMARK  135  A    between atoms: _314  and  _316
REMARK  136  A    between atoms: _316  and  _317
REMARK  137  A    between atoms: _316  and  _319
REMARK  138  A    between atoms: _319  and  _320
REMARK  139  A    between atoms: _320  and  _321
REMARK  140  A    between atoms: _321  and  _322
REMARK  141  A    between atoms: _322  and  _323
REMARK  142  A    between atoms: _327  and  _329
REMARK  143  A    between atoms: _329  and  _330
REMARK  144  A    between atoms: _329  and  _332
REMARK  145  A    between atoms: _332  and  _333
REMARK  146  A    between atoms: _339  and  _341
REMARK  147  A    between atoms: _341  and  _342
REMARK  148  A    between atoms: _344  and  _346
REMARK  149  A    between atoms: _346  and  _347
REMARK  150  A    between atoms: _346  and  _349
REMARK  151  A    between atoms: _349  and  _350
REMARK  152  A    between atoms: _355  and  _357
REMARK  153  A    between atoms: _357  and  _358
REMARK  154  A    between atoms: _360  and  _362
REMARK  155  A    between atoms: _362  and  _363
REMARK  156  A    between atoms: _362  and  _365
REMARK  157  A    between atoms: _365  and  _366
REMARK  158  A    between atoms: _366  and  _367
REMARK  159  A    between atoms: _369  and  _371
REMARK  160  A    between atoms: _371  and  _372
REMARK  161  A    between atoms: _371  and  _374
REMARK  162  A    between atoms: _374  and  _375
REMARK  163  A    between atoms: _381  and  _383
REMARK  164  A    between atoms: _383  and  _384
REMARK  165  A    between atoms: _383  and  _386
REMARK  166  A    between atoms: _386  and  _387
REMARK  167  A    between atoms: _390  and  _392
REMARK  168  A    between atoms: _392  and  _393
REMARK  169  A    between atoms: _392  and  _395
REMARK  170  A    between atoms: _397  and  _399
REMARK  171  A    between atoms: _399  and  _400
REMARK  172  A    between atoms: _399  and  _402
REMARK  173  A    between atoms: _402  and  _403
REMARK  174  A    between atoms: _406  and  _408
REMARK  175  A    between atoms: _408  and  _409
REMARK  176  A    between atoms: _408  and  _411
REMARK  177  A    between atoms: _411  and  _412
REMARK  178  A    between atoms: _417  and  _419
REMARK  179  A    between atoms: _419  and  _420
REMARK  180  A    between atoms: _419  and  _422
REMARK  181  A    between atoms: _422  and  _423
REMARK  182  A    between atoms: _423  and  _424
REMARK  183  A    between atoms: _424  and  _425
REMARK  184  A    between atoms: _434  and  _436
REMARK  185  A    between atoms: _436  and  _437
REMARK  186  A    between atoms: _436  and  _439
REMARK  187  A    between atoms: _439  and  _440
REMARK  188  A    between atoms: _443  and  _445
REMARK  189  A    between atoms: _445  and  _446
REMARK  190  A    between atoms: _445  and  _448
REMARK  191  A    between atoms: _448  and  _449
REMARK  192  A    between atoms: _452  and  _454
REMARK  193  A    between atoms: _454  and  _455
REMARK  194  A    between atoms: _454  and  _457
REMARK  195  A    between atoms: _457  and  _458
REMARK  196  A    between atoms: _458  and  _459
REMARK  197  A    between atoms: _459  and  _460
REMARK  198  A    between atoms: _469  and  _471
REMARK  199  A    between atoms: _471  and  _472
REMARK  200  A    between atoms: _471  and  _474
REMARK  201  A    between atoms: _474  and  _475
REMARK  202  A    between atoms: _480  and  _482
REMARK  203  A    between atoms: _482  and  _483
REMARK  204  A    between atoms: _482  and  _485
REMARK  205  A    between atoms: _485  and  _486
REMARK  206  A    between atoms: _489  and  _491
REMARK  207  A    between atoms: _491  and  _492
REMARK  208  A    between atoms: _491  and  _494
REMARK  209  A    between atoms: _494  and  _495
REMARK  210  A    between atoms: _498  and  _500
REMARK  211  A    between atoms: _500  and  _501
REMARK  212  A    between atoms: _500  and  _503
REMARK  213  A    between atoms: _503  and  _504
REMARK  214  A    between atoms: _507  and  _509
REMARK  215  A    between atoms: _509  and  _510
REMARK  216  A    between atoms: _509  and  _512
REMARK  217  A    between atoms: _512  and  _513
REMARK  218  A    between atoms: _515  and  _517
REMARK  219  A    between atoms: _517  and  _518
REMARK  220  A    between atoms: _517  and  _520
REMARK  221  A    between atoms: _520  and  _521
REMARK  222  A    between atoms: _521  and  _522
REMARK  223  A    between atoms: _522  and  _523
REMARK  224  A    between atoms: _523  and  _524
REMARK  225  A    between atoms: _528  and  _530
REMARK  226  A    between atoms: _530  and  _531
REMARK  227  A    between atoms: _530  and  _533
REMARK  228  A    between atoms: _533  and  _534
REMARK  229  A    between atoms: _537  and  _539
REMARK  230  A    between atoms: _539  and  _540
REMARK  231  A    between atoms: _539  and  _542
REMARK  232  A    between atoms: _544  and  _546
REMARK  233  A    between atoms: _546  and  _547
REMARK  234  A    between atoms: _546  and  _549
REMARK  235  A    between atoms: _549  and  _550
REMARK  236  A    between atoms: _553  and  _555
REMARK  237  A    between atoms: _555  and  _556
REMARK  238  A    between atoms: _555  and  _558
REMARK  239  A    between atoms: _558  and  _559
REMARK  240  A    between atoms: _565  and  _567
REMARK  241  A    between atoms: _567  and  _568
REMARK  242  A    between atoms: _570  and  _572
REMARK  243  A    between atoms: _572  and  _573
REMARK  244  A    between atoms: _572  and  _575
REMARK  245  A    between atoms: _575  and  _576
REMARK  246  A    between atoms: _579  and  _581
REMARK  247  A    between atoms: _581  and  _582
REMARK  248  A    between atoms: _585  and  _587
REMARK  249  A    between atoms: _587  and  _588
REMARK  250  A    between atoms: _587  and  _590
REMARK  251  A    between atoms: _590  and  _591
REMARK  252  A    between atoms: _591  and  _592
REMARK  253  A    between atoms: _592  and  _593
REMARK                            x       y       z     vdW  Elec       q    Type
REMARK                         _______ _______ _______ _____ _____    ______ ____
ROOT
ATOM      1  O   HOH     1     -23.440   9.836 -12.994  0.00  0.00    +0.000 OA
ENDROOT
TORSDOF 0
REMARK  Name = ../refined-set-2016/4asd/4asd_pocket.pdb
REMARK  253 active torsions:
REMARK  status: ('A' for Active; 'I' for Inactive)
REMARK    1  A    between atoms: _1  and  _3
REMARK    2  A    between atoms: _3  and  _4
REMARK    3  A    between atoms: _3  and  _6
REMARK    4  A    between atoms: _6  and  _7
REMARK    5  A    between atoms: _10  and  _12
REMARK    6  A    between atoms: _12  and  _13
REMARK    7  A    between atoms: _12  and  _15
REMARK    8  A    between atoms: _15  and  _16
REMARK    9  A    between atoms: _19  and  _21
REMARK   10  A    between atoms: _21  and  _22
REMARK   11  A    between atoms: _21  and  _24
REMARK   12  A    between atoms: _24  and  _25
REMARK   13  A    between atoms: _25  and  _26
REMARK   14  A    between atoms: _26  and  _27
REMARK   15  A    between atoms: _27  and  _28
REMARK   16  A    between atoms: _33  and  _34
REMARK   17  A    between atoms: _39  and  _41
REMARK   18  A    between atoms: _41  and  _42
REMARK   19  A    between atoms: _41  and  _44
REMARK   20  A    between atoms: _44  and  _45
REMARK   21  A    between atoms: _48  and  _50
REMARK   22  A    between atoms: _50  and  _51
REMARK   23  A    between atoms: _53  and  _55
REMARK   24  A    between atoms: _55  and  _56
REMARK   25  A    between atoms: _55  and  _58
REMARK   26  A    between atoms: _58  and  _59
REMARK   27  A    between atoms: _59  and  _60
REMARK   28  A    between atoms: _65  and  _67
REMARK   29  A    between atoms: _67  and  _68
REMARK   30  A    between atoms: _67  and  _70
REMARK   31  A    between atoms: _73  and  _75
REMARK   32  A    between atoms: _75  and  _76
REMARK   33  A    between atoms: _75  and  _78
REMARK   34  A    between atoms: _78  and  _79
REMARK   35  A    between atoms: _82  and  _84
REMARK   36  A    between atoms: _84  and  _85
REMARK   37  A    between atoms: _84  and  _87
REMARK   38  A    between atoms: _87  and  _88
REMARK   39  A    between atoms: _88  and  _89
REMARK   40  A    between atoms: _92  and  _94
REMARK   41  A    between atoms: _94  and  _95
REMARK   42  A    between atoms: _94  and  _97
REMARK   43  A    between atoms: _97  and  _98
REMARK   44  A    between atoms: _101  and  _103
REMARK   45  A    between atoms: _103  and  _104
REMARK   46  A    between atoms: _103  and  _106
REMARK   47  A    between atoms: _109  and  _111
REMARK   48  A    between atoms: _111  and  _112
REMARK   49  A    between atoms: _115  and  _117
REMARK   50  A    between atoms: _117  and  _118
REMARK   51  A    between atoms: _117  and  _120
REMARK   52  A    between atoms: _123  and  _125
REMARK   53  A    between atoms: _125  and  _126
REMARK   54  A    between atoms: _125  and  _128
REMARK   55  A    between atoms: _128  and  _129
REMARK   56  A    between atoms: _129  and  _130
REMARK   57  A    between atoms: _130  and  _131
REMARK   58  A    between atoms: _131  and  _132
REMARK   59  A    between atoms: _136  and  _138
REMARK   60  A    between atoms: _138  and  _139
REMARK   61  A    between atoms: _138  and  _141
REMARK   62  A    between atoms: _141  and  _142
REMARK   63  A    between atoms: _142  and  _143
REMARK   64  A    between atoms: _145  and  _147
REMARK   65  A    between atoms: _147  and  _148
REMARK   66  A    between atoms: _147  and  _150
REMARK   67  A    between atoms: _150  and  _151
REMARK   68  A    between atoms: _154  and  _156
REMARK   69  A    between atoms: _156  and  _157
REMARK   70  A    between atoms: _156  and  _159
REMARK   71  A    between atoms: _159  and  _160
REMARK   72  A    between atoms: _162  and  _164
REMARK   73  A    between atoms: _164  and  _165
REMARK   74  A    between atoms: _164  and  _167
REMARK   75  A    between atoms: _167  and  _168
REMARK   76  A    between atoms: _168  and  _169
REMARK   77  A    between atoms: _172  and  _174
REMARK   78  A    between atoms: _174  and  _175
REMARK   79  A    between atoms: _174  and  _177
REMARK   80  A    between atoms: _177  and  _178
REMARK   81  A    between atoms: _181  and  _183
REMARK   82  A    between atoms: _183  and  _184
REMARK   83  A    between atoms: _183  and  _186
REMARK   84  A    between atoms: _186  and  _187
REMARK   85  A    between atoms: _190  and  _192
REMARK   86  A    between atoms: _192  and  _193
REMARK   87  A    between atoms: _192  and  _195
REMARK   88  A    between atoms: _195  and  _196
REMARK   89  A    between atoms: _199  and  _201
REMARK   90  A    between atoms: _201  and  _202
REMARK   91  A    between atoms: _201  and  _204
REMARK   92  A    between atoms: _204  and  _205
REMARK   93  A    between atoms: _208  and  _210
REMARK   94  A    between atoms: _210  and  _211
REMARK   95  A    between atoms: _213  and  _215
REMARK   96  A    between atoms: _215  and  _216
REMARK   97  A    between atoms: _215  and  _218
REMARK   98  A    between atoms: _218  and  _219
REMARK   99  A    between atoms: _224  and  _226
REMARK  100  A    between atoms: _226  and  _227
REMARK  101  A    between atoms: _226  and  _229
REMARK  102  A    between atoms: _232  and  _234
REMARK  103  A    between atoms: _234  and  _235
REMARK  104  A    between atoms: _234  and  _237
REMARK  105  A    between atoms: _240  and  _242
REMARK  106  A    between atoms: _242  and  _243
REMARK  107  A    between atoms: _242  and  _245
REMARK  108  A    between atoms: _245  and  _246
REMARK  109  A    between atoms: _251  and  _253
REMARK  110  A    between atoms: _253  and  _254
REMARK  111  A    between atoms: _253  and  _256
REMARK  112  A    between atoms: _256  and  _257
REMARK  113  A    between atoms: _260  and  _262
REMARK  114  A    between atoms: _262  and  _263
REMARK  115  A    between atoms: _262  and  _265
REMARK  116  A    between atoms: _268  and  _270
REMARK  117  A    between atoms: _270  and  _271
REMARK  118  A    between atoms: _270  and  _273
REMARK  119  A    between atoms: _273  and  _274
REMARK  120  A    between atoms: _277  and  _279
REMARK  121  A    between atoms: _279  and  _280
REMARK  122  A    between atoms: _279  and  _282
REMARK  123  A    between atoms: _285  and  _287
REMARK  124  A    between atoms: _287  and  _288
REMARK  125  A    between atoms: _287  and  _290
REMARK  126  A    between atoms: _290  and  _291
REMARK  127  A    between atoms: _291  and  _292
REMARK  128  A    between atoms: _295  and  _297
REMARK  129  A    between atoms: _297  and  _298
REMARK  130  A    between atoms: _297  and  _300
REMARK  131  A    between atoms: _300  and  _301
REMARK  132  A    between atoms: _307  and  _309
REMARK  133  A    between atoms: _309  and  _310
REMARK  134  A    between atoms: _309  and  _312
REMARK  135  A    between atoms: _314  and  _316
REMARK  136  A    between atoms: _316  and  _317
REMARK  137  A    between atoms: _316  and  _319
REMARK  138  A    between atoms: _319  and  _320
REMARK  139  A    between atoms: _320  and  _321
REMARK  140  A    between atoms: _321  and  _322
REMARK  141  A    between atoms: _322  and  _323
REMARK  142  A    between atoms: _327  and  _329
REMARK  143  A    between atoms: _329  and  _330
REMARK  144  A    between atoms: _329  and  _332
REMARK  145  A    between atoms: _332  and  _333
REMARK  146  A    between atoms: _339  and  _341
REMARK  147  A    between atoms: _341  and  _342
REMARK  148  A    between atoms: _344  and  _346
REMARK  149  A    between atoms: _346  and  _347
REMARK  150  A    between atoms: _346  and  _349
REMARK  151  A    between atoms: _349  and  _350
REMARK  152  A    between atoms: _355  and  _357
REMARK  153  A    between atoms: _357  and  _358
REMARK  154  A    between atoms: _360  and  _362
REMARK  155  A    between atoms: _362  and  _363
REMARK  156  A    between atoms: _362  and  _365
REMARK  157  A    between atoms: _365  and  _366
REMARK  158  A    between atoms: _366  and  _367
REMARK  159  A    between atoms: _369  and  _371
REMARK  160  A    between atoms: _371  and  _372
REMARK  161  A    between atoms: _371  and  _374
REMARK  162  A    between atoms: _374  and  _375
REMARK  163  A    between atoms: _381  and  _383
REMARK  164  A    between atoms: _383  and  _384
REMARK  165  A    between atoms: _383  and  _386
REMARK  166  A    between atoms: _386  and  _387
REMARK  167  A    between atoms: _390  and  _392
REMARK  168  A    between atoms: _392  and  _393
REMARK  169  A    between atoms: _392  and  _395
REMARK  170  A    between atoms: _397  and  _399
REMARK  171  A    between atoms: _399  and  _400
REMARK  172  A    between atoms: _399  and  _402
REMARK  173  A    between atoms: _402  and  _403
REMARK  174  A    between atoms: _406  and  _408
REMARK  175  A    between atoms: _408  and  _409
REMARK  176  A    between atoms: _408  and  _411
REMARK  177  A    between atoms: _411  and  _412
REMARK  178  A    between atoms: _417  and  _419
REMARK  179  A    between atoms: _419  and  _420
REMARK  180  A    between atoms: _419  and  _422
REMARK  181  A    between atoms: _422  and  _423
REMARK  182  A    between atoms: _423  and  _424
REMARK  183  A    between atoms: _424  and  _425
REMARK  184  A    between atoms: _434  and  _436
REMARK  185  A    between atoms: _436  and  _437
REMARK  186  A    between atoms: _436  and  _439
REMARK  187  A    between atoms: _439  and  _440
REMARK  188  A    between atoms: _443  and  _445
REMARK  189  A    between atoms: _445  and  _446
REMARK  190  A    between atoms: _445  and  _448
REMARK  191  A    between atoms: _448  and  _449
REMARK  192  A    between atoms: _452  and  _454
REMARK  193  A    between atoms: _454  and  _455
REMARK  194  A    between atoms: _454  and  _457
REMARK  195  A    between atoms: _457  and  _458
REMARK  196  A    between atoms: _458  and  _459
REMARK  197  A    between atoms: _459  and  _460
REMARK  198  A    between atoms: _469  and  _471
REMARK  199  A    between atoms: _471  and  _472
REMARK  200  A    between atoms: _471  and  _474
REMARK  201  A    between atoms: _474  and  _475
REMARK  202  A    between atoms: _480  and  _482
REMARK  203  A    between atoms: _482  and  _483
REMARK  204  A    between atoms: _482  and  _485
REMARK  205  A    between atoms: _485  and  _486
REMARK  206  A    between atoms: _489  and  _491
REMARK  207  A    between atoms: _491  and  _492
REMARK  208  A    between atoms: _491  and  _494
REMARK  209  A    between atoms: _494  and  _495
REMARK  210  A    between atoms: _498  and  _500
REMARK  211  A    between atoms: _500  and  _501
REMARK  212  A    between atoms: _500  and  _503
REMARK  213  A    between atoms: _503  and  _504
REMARK  214  A    between atoms: _507  and  _509
REMARK  215  A    between atoms: _509  and  _510
REMARK  216  A    between atoms: _509  and  _512
REMARK  217  A    between atoms: _512  and  _513
REMARK  218  A    between atoms: _515  and  _517
REMARK  219  A    between atoms: _517  and  _518
REMARK  220  A    between atoms: _517  and  _520
REMARK  221  A    between atoms: _520  and  _521
REMARK  222  A    between atoms: _521  and  _522
REMARK  223  A    between atoms: _522  and  _523
REMARK  224  A    between atoms: _523  and  _524
REMARK  225  A    between atoms: _528  and  _530
REMARK  226  A    between atoms: _530  and  _531
REMARK  227  A    between atoms: _530  and  _533
REMARK  228  A    between atoms: _533  and  _534
REMARK  229  A    between atoms: _537  and  _539
REMARK  230  A    between atoms: _539  and  _540
REMARK  231  A    between atoms: _539  and  _542
REMARK  232  A    between atoms: _544  and  _546
REMARK  233  A    between atoms: _546  and  _547
REMARK  234  A    between atoms: _546  and  _549
REMARK  235  A    between atoms: _549  and  _550
REMARK  236  A    between atoms: _553  and  _555
REMARK  237  A    between atoms: _555  and  _556
REMARK  238  A    between atoms: _555  and  _558
REMARK  239  A    between atoms: _558  and  _559
REMARK  240  A    between atoms: _565  and  _567
REMARK  241  A    between atoms: _567  and  _568
REMARK  242  A    between atoms: _570  and  _572
REMARK  243  A    between atoms: _572  and  _573
REMARK  244  A    between atoms: _572  and  _575
REMARK  245  A    between atoms: _575  and  _576
REMARK  246  A    between atoms: _579  and  _581
REMARK  247  A    between atoms: _581  and  _582
REMARK  248  A    between atoms: _585  and  _587
REMARK  249  A    between atoms: _587  and  _588
REMARK  250  A    between atoms: _587  and  _590
REMARK  251  A    between atoms: _590  and  _591
REMARK  252  A    between atoms: _591  and  _592
REMARK  253  A    between atoms: _592  and  _593
REMARK                            x       y       z     vdW  Elec       q    Type
REMARK                         _______ _______ _______ _____ _____    ______ ____
ROOT
ATOM      1  O   HOH     1     -20.542  10.637 -14.449  0.00  0.00    +0.000 OA
ENDROOT
TORSDOF 0
REMARK  Name = ../refined-set-2016/4asd/4asd_pocket.pdb
REMARK  253 active torsions:
REMARK  status: ('A' for Active; 'I' for Inactive)
REMARK    1  A    between atoms: _1  and  _3
REMARK    2  A    between atoms: _3  and  _4
REMARK    3  A    between atoms: _3  and  _6
REMARK    4  A    between atoms: _6  and  _7
REMARK    5  A    between atoms: _10  and  _12
REMARK    6  A    between atoms: _12  and  _13
REMARK    7  A    between atoms: _12  and  _15
REMARK    8  A    between atoms: _15  and  _16
REMARK    9  A    between atoms: _19  and  _21
REMARK   10  A    between atoms: _21  and  _22
REMARK   11  A    between atoms: _21  and  _24
REMARK   12  A    between atoms: _24  and  _25
REMARK   13  A    between atoms: _25  and  _26
REMARK   14  A    between atoms: _26  and  _27
REMARK   15  A    between atoms: _27  and  _28
REMARK   16  A    between atoms: _33  and  _34
REMARK   17  A    between atoms: _39  and  _41
REMARK   18  A    between atoms: _41  and  _42
REMARK   19  A    between atoms: _41  and  _44
REMARK   20  A    between atoms: _44  and  _45
REMARK   21  A    between atoms: _48  and  _50
REMARK   22  A    between atoms: _50  and  _51
REMARK   23  A    between atoms: _53  and  _55
REMARK   24  A    between atoms: _55  and  _56
REMARK   25  A    between atoms: _55  and  _58
REMARK   26  A    between atoms: _58  and  _59
REMARK   27  A    between atoms: _59  and  _60
REMARK   28  A    between atoms: _65  and  _67
REMARK   29  A    between atoms: _67  and  _68
REMARK   30  A    between atoms: _67  and  _70
REMARK   31  A    between atoms: _73  and  _75
REMARK   32  A    between atoms: _75  and  _76
REMARK   33  A    between atoms: _75  and  _78
REMARK   34  A    between atoms: _78  and  _79
REMARK   35  A    between atoms: _82  and  _84
REMARK   36  A    between atoms: _84  and  _85
REMARK   37  A    between atoms: _84  and  _87
REMARK   38  A    between atoms: _87  and  _88
REMARK   39  A    between atoms: _88  and  _89
REMARK   40  A    between atoms: _92  and  _94
REMARK   41  A    between atoms: _94  and  _95
REMARK   42  A    between atoms: _94  and  _97
REMARK   43  A    between atoms: _97  and  _98
REMARK   44  A    between atoms: _101  and  _103
REMARK   45  A    between atoms: _103  and  _104
REMARK   46  A    between atoms: _103  and  _106
REMARK   47  A    between atoms: _109  and  _111
REMARK   48  A    between atoms: _111  and  _112
REMARK   49  A    between atoms: _115  and  _117
REMARK   50  A    between atoms: _117  and  _118
REMARK   51  A    between atoms: _117  and  _120
REMARK   52  A    between atoms: _123  and  _125
REMARK   53  A    between atoms: _125  and  _126
REMARK   54  A    between atoms: _125  and  _128
REMARK   55  A    between atoms: _128  and  _129
REMARK   56  A    between atoms: _129  and  _130
REMARK   57  A    between atoms: _130  and  _131
REMARK   58  A    between atoms: _131  and  _132
REMARK   59  A    between atoms: _136  and  _138
REMARK   60  A    between atoms: _138  and  _139
REMARK   61  A    between atoms: _138  and  _141
REMARK   62  A    between atoms: _141  and  _142
REMARK   63  A    between atoms: _142  and  _143
REMARK   64  A    between atoms: _145  and  _147
REMARK   65  A    between atoms: _147  and  _148
REMARK   66  A    between atoms: _147  and  _150
REMARK   67  A    between atoms: _150  and  _151
REMARK   68  A    between atoms: _154  and  _156
REMARK   69  A    between atoms: _156  and  _157
REMARK   70  A    between atoms: _156  and  _159
REMARK   71  A    between atoms: _159  and  _160
REMARK   72  A    between atoms: _162  and  _164
REMARK   73  A    between atoms: _164  and  _165
REMARK   74  A    between atoms: _164  and  _167
REMARK   75  A    between atoms: _167  and  _168
REMARK   76  A    between atoms: _168  and  _169
REMARK   77  A    between atoms: _172  and  _174
REMARK   78  A    between atoms: _174  and  _175
REMARK   79  A    between atoms: _174  and  _177
REMARK   80  A    between atoms: _177  and  _178
REMARK   81  A    between atoms: _181  and  _183
REMARK   82  A    between atoms: _183  and  _184
REMARK   83  A    between atoms: _183  and  _186
REMARK   84  A    between atoms: _186  and  _187
REMARK   85  A    between atoms: _190  and  _192
REMARK   86  A    between atoms: _192  and  _193
REMARK   87  A    between atoms: _192  and  _195
REMARK   88  A    between atoms: _195  and  _196
REMARK   89  A    between atoms: _199  and  _201
REMARK   90  A    between atoms: _201  and  _202
REMARK   91  A    between atoms: _201  and  _204
REMARK   92  A    between atoms: _204  and  _205
REMARK   93  A    between atoms: _208  and  _210
REMARK   94  A    between atoms: _210  and  _211
REMARK   95  A    between atoms: _213  and  _215
REMARK   96  A    between atoms: _215  and  _216
REMARK   97  A    between atoms: _215  and  _218
REMARK   98  A    between atoms: _218  and  _219
REMARK   99  A    between atoms: _224  and  _226
REMARK  100  A    between atoms: _226  and  _227
REMARK  101  A    between atoms: _226  and  _229
REMARK  102  A    between atoms: _232  and  _234
REMARK  103  A    between atoms: _234  and  _235
REMARK  104  A    between atoms: _234  and  _237
REMARK  105  A    between atoms: _240  and  _242
REMARK  106  A    between atoms: _242  and  _243
REMARK  107  A    between atoms: _242  and  _245
REMARK  108  A    between atoms: _245  and  _246
REMARK  109  A    between atoms: _251  and  _253
REMARK  110  A    between atoms: _253  and  _254
REMARK  111  A    between atoms: _253  and  _256
REMARK  112  A    between atoms: _256  and  _257
REMARK  113  A    between atoms: _260  and  _262
REMARK  114  A    between atoms: _262  and  _263
REMARK  115  A    between atoms: _262  and  _265
REMARK  116  A    between atoms: _268  and  _270
REMARK  117  A    between atoms: _270  and  _271
REMARK  118  A    between atoms: _270  and  _273
REMARK  119  A    between atoms: _273  and  _274
REMARK  120  A    between atoms: _277  and  _279
REMARK  121  A    between atoms: _279  and  _280
REMARK  122  A    between atoms: _279  and  _282
REMARK  123  A    between atoms: _285  and  _287
REMARK  124  A    between atoms: _287  and  _288
REMARK  125  A    between atoms: _287  and  _290
REMARK  126  A    between atoms: _290  and  _291
REMARK  127  A    between atoms: _291  and  _292
REMARK  128  A    between atoms: _295  and  _297
REMARK  129  A    between atoms: _297  and  _298
REMARK  130  A    between atoms: _297  and  _300
REMARK  131  A    between atoms: _300  and  _301
REMARK  132  A    between atoms: _307  and  _309
REMARK  133  A    between atoms: _309  and  _310
REMARK  134  A    between atoms: _309  and  _312
REMARK  135  A    between atoms: _314  and  _316
REMARK  136  A    between atoms: _316  and  _317
REMARK  137  A    between atoms: _316  and  _319
REMARK  138  A    between atoms: _319  and  _320
REMARK  139  A    between atoms: _320  and  _321
REMARK  140  A    between atoms: _321  and  _322
REMARK  141  A    between atoms: _322  and  _323
REMARK  142  A    between atoms: _327  and  _329
REMARK  143  A    between atoms: _329  and  _330
REMARK  144  A    between atoms: _329  and  _332
REMARK  145  A    between atoms: _332  and  _333
REMARK  146  A    between atoms: _339  and  _341
REMARK  147  A    between atoms: _341  and  _342
REMARK  148  A    between atoms: _344  and  _346
REMARK  149  A    between atoms: _346  and  _347
REMARK  150  A    between atoms: _346  and  _349
REMARK  151  A    between atoms: _349  and  _350
REMARK  152  A    between atoms: _355  and  _357
REMARK  153  A    between atoms: _357  and  _358
REMARK  154  A    between atoms: _360  and  _362
REMARK  155  A    between atoms: _362  and  _363
REMARK  156  A    between atoms: _362  and  _365
REMARK  157  A    between atoms: _365  and  _366
REMARK  158  A    between atoms: _366  and  _367
REMARK  159  A    between atoms: _369  and  _371
REMARK  160  A    between atoms: _371  and  _372
REMARK  161  A    between atoms: _371  and  _374
REMARK  162  A    between atoms: _374  and  _375
REMARK  163  A    between atoms: _381  and  _383
REMARK  164  A    between atoms: _383  and  _384
REMARK  165  A    between atoms: _383  and  _386
REMARK  166  A    between atoms: _386  and  _387
REMARK  167  A    between atoms: _390  and  _392
REMARK  168  A    between atoms: _392  and  _393
REMARK  169  A    between atoms: _392  and  _395
REMARK  170  A    between atoms: _397  and  _399
REMARK  171  A    between atoms: _399  and  _400
REMARK  172  A    between atoms: _399  and  _402
REMARK  173  A    between atoms: _402  and  _403
REMARK  174  A    between atoms: _406  and  _408
REMARK  175  A    between atoms: _408  and  _409
REMARK  176  A    between atoms: _408  and  _411
REMARK  177  A    between atoms: _411  and  _412
REMARK  178  A    between atoms: _417  and  _419
REMARK  179  A    between atoms: _419  and  _420
REMARK  180  A    between atoms: _419  and  _422
REMARK  181  A    between atoms: _422  and  _423
REMARK  182  A    between atoms: _423  and  _424
REMARK  183  A    between atoms: _424  and  _425
REMARK  184  A    between atoms: _434  and  _436
REMARK  185  A    between atoms: _436  and  _437
REMARK  186  A    between atoms: _436  and  _439
REMARK  187  A    between atoms: _439  and  _440
REMARK  188  A    between atoms: _443  and  _445
REMARK  189  A    between atoms: _445  and  _446
REMARK  190  A    between atoms: _445  and  _448
REMARK  191  A    between atoms: _448  and  _449
REMARK  192  A    between atoms: _452  and  _454
REMARK  193  A    between atoms: _454  and  _455
REMARK  194  A    between atoms: _454  and  _457
REMARK  195  A    between atoms: _457  and  _458
REMARK  196  A    between atoms: _458  and  _459
REMARK  197  A    between atoms: _459  and  _460
REMARK  198  A    between atoms: _469  and  _471
REMARK  199  A    between atoms: _471  and  _472
REMARK  200  A    between atoms: _471  and  _474
REMARK  201  A    between atoms: _474  and  _475
REMARK  202  A    between atoms: _480  and  _482
REMARK  203  A    between atoms: _482  and  _483
REMARK  204  A    between atoms: _482  and  _485
REMARK  205  A    between atoms: _485  and  _486
REMARK  206  A    between atoms: _489  and  _491
REMARK  207  A    between atoms: _491  and  _492
REMARK  208  A    between atoms: _491  and  _494
REMARK  209  A    between atoms: _494  and  _495
REMARK  210  A    between atoms: _498  and  _500
REMARK  211  A    between atoms: _500  and  _501
REMARK  212  A    between atoms: _500  and  _503
REMARK  213  A    between atoms: _503  and  _504
REMARK  214  A    between atoms: _507  and  _509
REMARK  215  A    between atoms: _509  and  _510
REMARK  216  A    between atoms: _509  and  _512
REMARK  217  A    between atoms: _512  and  _513
REMARK  218  A    between atoms: _515  and  _517
REMARK  219  A    between atoms: _517  and  _518
REMARK  220  A    between atoms: _517  and  _520
REMARK  221  A    between atoms: _520  and  _521
REMARK  222  A    between atoms: _521  and  _522
REMARK  223  A    between atoms: _522  and  _523
REMARK  224  A    between atoms: _523  and  _524
REMARK  225  A    between atoms: _528  and  _530
REMARK  226  A    between atoms: _530  and  _531
REMARK  227  A    between atoms: _530  and  _533
REMARK  228  A    between atoms: _533  and  _534
REMARK  229  A    between atoms: _537  and  _539
REMARK  230  A    between atoms: _539  and  _540
REMARK  231  A    between atoms: _539  and  _542
REMARK  232  A    between atoms: _544  and  _546
REMARK  233  A    between atoms: _546  and  _547
REMARK  234  A    between atoms: _546  and  _549
REMARK  235  A    between atoms: _549  and  _550
REMARK  236  A    between atoms: _553  and  _555
REMARK  237  A    between atoms: _555  and  _556
REMARK  238  A    between atoms: _555  and  _558
REMARK  239  A    between atoms: _558  and  _559
REMARK  240  A    between atoms: _565  and  _567
REMARK  241  A    between atoms: _567  and  _568
REMARK  242  A    between atoms: _570  and  _572
REMARK  243  A    between atoms: _572  and  _573
REMARK  244  A    between atoms: _572  and  _575
REMARK  245  A    between atoms: _575  and  _576
REMARK  246  A    between atoms: _579  and  _581
REMARK  247  A    between atoms: _581  and  _582
REMARK  248  A    between atoms: _585  and  _587
REMARK  249  A    between atoms: _587  and  _588
REMARK  250  A    between atoms: _587  and  _590
REMARK  251  A    between atoms: _590  and  _591
REMARK  252  A    between atoms: _591  and  _592
REMARK  253  A    between atoms: _592  and  _593
REMARK                            x       y       z     vdW  Elec       q    Type
REMARK                         _______ _______ _______ _____ _____    ______ ____
ROOT
ATOM      1  O   HOH     1     -15.025   7.628 -17.961  0.00  0.00    +0.000 OA
ENDROOT
TORSDOF 0
REMARK  Name = ../refined-set-2016/4asd/4asd_pocket.pdb
REMARK  253 active torsions:
REMARK  status: ('A' for Active; 'I' for Inactive)
REMARK    1  A    between atoms: _1  and  _3
REMARK    2  A    between atoms: _3  and  _4
REMARK    3  A    between atoms: _3  and  _6
REMARK    4  A    between atoms: _6  and  _7
REMARK    5  A    between atoms: _10  and  _12
REMARK    6  A    between atoms: _12  and  _13
REMARK    7  A    between atoms: _12  and  _15
REMARK    8  A    between atoms: _15  and  _16
REMARK    9  A    between atoms: _19  and  _21
REMARK   10  A    between atoms: _21  and  _22
REMARK   11  A    between atoms: _21  and  _24
REMARK   12  A    between atoms: _24  and  _25
REMARK   13  A    between atoms: _25  and  _26
REMARK   14  A    between atoms: _26  and  _27
REMARK   15  A    between atoms: _27  and  _28
REMARK   16  A    between atoms: _33  and  _34
REMARK   17  A    between atoms: _39  and  _41
REMARK   18  A    between atoms: _41  and  _42
REMARK   19  A    between atoms: _41  and  _44
REMARK   20  A    between atoms: _44  and  _45
REMARK   21  A    between atoms: _48  and  _50
REMARK   22  A    between atoms: _50  and  _51
REMARK   23  A    between atoms: _53  and  _55
REMARK   24  A    between atoms: _55  and  _56
REMARK   25  A    between atoms: _55  and  _58
REMARK   26  A    between atoms: _58  and  _59
REMARK   27  A    between atoms: _59  and  _60
REMARK   28  A    between atoms: _65  and  _67
REMARK   29  A    between atoms: _67  and  _68
REMARK   30  A    between atoms: _67  and  _70
REMARK   31  A    between atoms: _73  and  _75
REMARK   32  A    between atoms: _75  and  _76
REMARK   33  A    between atoms: _75  and  _78
REMARK   34  A    between atoms: _78  and  _79
REMARK   35  A    between atoms: _82  and  _84
REMARK   36  A    between atoms: _84  and  _85
REMARK   37  A    between atoms: _84  and  _87
REMARK   38  A    between atoms: _87  and  _88
REMARK   39  A    between atoms: _88  and  _89
REMARK   40  A    between atoms: _92  and  _94
REMARK   41  A    between atoms: _94  and  _95
REMARK   42  A    between atoms: _94  and  _97
REMARK   43  A    between atoms: _97  and  _98
REMARK   44  A    between atoms: _101  and  _103
REMARK   45  A    between atoms: _103  and  _104
REMARK   46  A    between atoms: _103  and  _106
REMARK   47  A    between atoms: _109  and  _111
REMARK   48  A    between atoms: _111  and  _112
REMARK   49  A    between atoms: _115  and  _117
REMARK   50  A    between atoms: _117  and  _118
REMARK   51  A    between atoms: _117  and  _120
REMARK   52  A    between atoms: _123  and  _125
REMARK   53  A    between atoms: _125  and  _126
REMARK   54  A    between atoms: _125  and  _128
REMARK   55  A    between atoms: _128  and  _129
REMARK   56  A    between atoms: _129  and  _130
REMARK   57  A    between atoms: _130  and  _131
REMARK   58  A    between atoms: _131  and  _132
REMARK   59  A    between atoms: _136  and  _138
REMARK   60  A    between atoms: _138  and  _139
REMARK   61  A    between atoms: _138  and  _141
REMARK   62  A    between atoms: _141  and  _142
REMARK   63  A    between atoms: _142  and  _143
REMARK   64  A    between atoms: _145  and  _147
REMARK   65  A    between atoms: _147  and  _148
REMARK   66  A    between atoms: _147  and  _150
REMARK   67  A    between atoms: _150  and  _151
REMARK   68  A    between atoms: _154  and  _156
REMARK   69  A    between atoms: _156  and  _157
REMARK   70  A    between atoms: _156  and  _159
REMARK   71  A    between atoms: _159  and  _160
REMARK   72  A    between atoms: _162  and  _164
REMARK   73  A    between atoms: _164  and  _165
REMARK   74  A    between atoms: _164  and  _167
REMARK   75  A    between atoms: _167  and  _168
REMARK   76  A    between atoms: _168  and  _169
REMARK   77  A    between atoms: _172  and  _174
REMARK   78  A    between atoms: _174  and  _175
REMARK   79  A    between atoms: _174  and  _177
REMARK   80  A    between atoms: _177  and  _178
REMARK   81  A    between atoms: _181  and  _183
REMARK   82  A    between atoms: _183  and  _184
REMARK   83  A    between atoms: _183  and  _186
REMARK   84  A    between atoms: _186  and  _187
REMARK   85  A    between atoms: _190  and  _192
REMARK   86  A    between atoms: _192  and  _193
REMARK   87  A    between atoms: _192  and  _195
REMARK   88  A    between atoms: _195  and  _196
REMARK   89  A    between atoms: _199  and  _201
REMARK   90  A    between atoms: _201  and  _202
REMARK   91  A    between atoms: _201  and  _204
REMARK   92  A    between atoms: _204  and  _205
REMARK   93  A    between atoms: _208  and  _210
REMARK   94  A    between atoms: _210  and  _211
REMARK   95  A    between atoms: _213  and  _215
REMARK   96  A    between atoms: _215  and  _216
REMARK   97  A    between atoms: _215  and  _218
REMARK   98  A    between atoms: _218  and  _219
REMARK   99  A    between atoms: _224  and  _226
REMARK  100  A    between atoms: _226  and  _227
REMARK  101  A    between atoms: _226  and  _229
REMARK  102  A    between atoms: _232  and  _234
REMARK  103  A    between atoms: _234  and  _235
REMARK  104  A    between atoms: _234  and  _237
REMARK  105  A    between atoms: _240  and  _242
REMARK  106  A    between atoms: _242  and  _243
REMARK  107  A    between atoms: _242  and  _245
REMARK  108  A    between atoms: _245  and  _246
REMARK  109  A    between atoms: _251  and  _253
REMARK  110  A    between atoms: _253  and  _254
REMARK  111  A    between atoms: _253  and  _256
REMARK  112  A    between atoms: _256  and  _257
REMARK  113  A    between atoms: _260  and  _262
REMARK  114  A    between atoms: _262  and  _263
REMARK  115  A    between atoms: _262  and  _265
REMARK  116  A    between atoms: _268  and  _270
REMARK  117  A    between atoms: _270  and  _271
REMARK  118  A    between atoms: _270  and  _273
REMARK  119  A    between atoms: _273  and  _274
REMARK  120  A    between atoms: _277  and  _279
REMARK  121  A    between atoms: _279  and  _280
REMARK  122  A    between atoms: _279  and  _282
REMARK  123  A    between atoms: _285  and  _287
REMARK  124  A    between atoms: _287  and  _288
REMARK  125  A    between atoms: _287  and  _290
REMARK  126  A    between atoms: _290  and  _291
REMARK  127  A    between atoms: _291  and  _292
REMARK  128  A    between atoms: _295  and  _297
REMARK  129  A    between atoms: _297  and  _298
REMARK  130  A    between atoms: _297  and  _300
REMARK  131  A    between atoms: _300  and  _301
REMARK  132  A    between atoms: _307  and  _309
REMARK  133  A    between atoms: _309  and  _310
REMARK  134  A    between atoms: _309  and  _312
REMARK  135  A    between atoms: _314  and  _316
REMARK  136  A    between atoms: _316  and  _317
REMARK  137  A    between atoms: _316  and  _319
REMARK  138  A    between atoms: _319  and  _320
REMARK  139  A    between atoms: _320  and  _321
REMARK  140  A    between atoms: _321  and  _322
REMARK  141  A    between atoms: _322  and  _323
REMARK  142  A    between atoms: _327  and  _329
REMARK  143  A    between atoms: _329  and  _330
REMARK  144  A    between atoms: _329  and  _332
REMARK  145  A    between atoms: _332  and  _333
REMARK  146  A    between atoms: _339  and  _341
REMARK  147  A    between atoms: _341  and  _342
REMARK  148  A    between atoms: _344  and  _346
REMARK  149  A    between atoms: _346  and  _347
REMARK  150  A    between atoms: _346  and  _349
REMARK  151  A    between atoms: _349  and  _350
REMARK  152  A    between atoms: _355  and  _357
REMARK  153  A    between atoms: _357  and  _358
REMARK  154  A    between atoms: _360  and  _362
REMARK  155  A    between atoms: _362  and  _363
REMARK  156  A    between atoms: _362  and  _365
REMARK  157  A    between atoms: _365  and  _366
REMARK  158  A    between atoms: _366  and  _367
REMARK  159  A    between atoms: _369  and  _371
REMARK  160  A    between atoms: _371  and  _372
REMARK  161  A    between atoms: _371  and  _374
REMARK  162  A    between atoms: _374  and  _375
REMARK  163  A    between atoms: _381  and  _383
REMARK  164  A    between atoms: _383  and  _384
REMARK  165  A    between atoms: _383  and  _386
REMARK  166  A    between atoms: _386  and  _387
REMARK  167  A    between atoms: _390  and  _392
REMARK  168  A    between atoms: _392  and  _393
REMARK  169  A    between atoms: _392  and  _395
REMARK  170  A    between atoms: _397  and  _399
REMARK  171  A    between atoms: _399  and  _400
REMARK  172  A    between atoms: _399  and  _402
REMARK  173  A    between atoms: _402  and  _403
REMARK  174  A    between atoms: _406  and  _408
REMARK  175  A    between atoms: _408  and  _409
REMARK  176  A    between atoms: _408  and  _411
REMARK  177  A    between atoms: _411  and  _412
REMARK  178  A    between atoms: _417  and  _419
REMARK  179  A    between atoms: _419  and  _420
REMARK  180  A    between atoms: _419  and  _422
REMARK  181  A    between atoms: _422  and  _423
REMARK  182  A    between atoms: _423  and  _424
REMARK  183  A    between atoms: _424  and  _425
REMARK  184  A    between atoms: _434  and  _436
REMARK  185  A    between atoms: _436  and  _437
REMARK  186  A    between atoms: _436  and  _439
REMARK  187  A    between atoms: _439  and  _440
REMARK  188  A    between atoms: _443  and  _445
REMARK  189  A    between atoms: _445  and  _446
REMARK  190  A    between atoms: _445  and  _448
REMARK  191  A    between atoms: _448  and  _449
REMARK  192  A    between atoms: _452  and  _454
REMARK  193  A    between atoms: _454  and  _455
REMARK  194  A    between atoms: _454  and  _457
REMARK  195  A    between atoms: _457  and  _458
REMARK  196  A    between atoms: _458  and  _459
REMARK  197  A    between atoms: _459  and  _460
REMARK  198  A    between atoms: _469  and  _471
REMARK  199  A    between atoms: _471  and  _472
REMARK  200  A    between atoms: _471  and  _474
REMARK  201  A    between atoms: _474  and  _475
REMARK  202  A    between atoms: _480  and  _482
REMARK  203  A    between atoms: _482  and  _483
REMARK  204  A    between atoms: _482  and  _485
REMARK  205  A    between atoms: _485  and  _486
REMARK  206  A    between atoms: _489  and  _491
REMARK  207  A    between atoms: _491  and  _492
REMARK  208  A    between atoms: _491  and  _494
REMARK  209  A    between atoms: _494  and  _495
REMARK  210  A    between atoms: _498  and  _500
REMARK  211  A    between atoms: _500  and  _501
REMARK  212  A    between atoms: _500  and  _503
REMARK  213  A    between atoms: _503  and  _504
REMARK  214  A    between atoms: _507  and  _509
REMARK  215  A    between atoms: _509  and  _510
REMARK  216  A    between atoms: _509  and  _512
REMARK  217  A    between atoms: _512  and  _513
REMARK  218  A    between atoms: _515  and  _517
REMARK  219  A    between atoms: _517  and  _518
REMARK  220  A    between atoms: _517  and  _520
REMARK  221  A    between atoms: _520  and  _521
REMARK  222  A    between atoms: _521  and  _522
REMARK  223  A    between atoms: _522  and  _523
REMARK  224  A    between atoms: _523  and  _524
REMARK  225  A    between atoms: _528  and  _530
REMARK  226  A    between atoms: _530  and  _531
REMARK  227  A    between atoms: _530  and  _533
REMARK  228  A    between atoms: _533  and  _534
REMARK  229  A    between atoms: _537  and  _539
REMARK  230  A    between atoms: _539  and  _540
REMARK  231  A    between atoms: _539  and  _542
REMARK  232  A    between atoms: _544  and  _546
REMARK  233  A    between atoms: _546  and  _547
REMARK  234  A    between atoms: _546  and  _549
REMARK  235  A    between atoms: _549  and  _550
REMARK  236  A    between atoms: _553  and  _555
REMARK  237  A    between atoms: _555  and  _556
REMARK  238  A    between atoms: _555  and  _558
REMARK  239  A    between atoms: _558  and  _559
REMARK  240  A    between atoms: _565  and  _567
REMARK  241  A    between atoms: _567  and  _568
REMARK  242  A    between atoms: _570  and  _572
REMARK  243  A    between atoms: _572  and  _573
REMARK  244  A    between atoms: _572  and  _575
REMARK  245  A    between atoms: _575  and  _576
REMARK  246  A    between atoms: _579  and  _581
REMARK  247  A    between atoms: _581  and  _582
REMARK  248  A    between atoms: _585  and  _587
REMARK  249  A    between atoms: _587  and  _588
REMARK  250  A    between atoms: _587  and  _590
REMARK  251  A    between atoms: _590  and  _591
REMARK  252  A    between atoms: _591  and  _592
REMARK  253  A    between atoms: _592  and  _593
REMARK                            x       y       z     vdW  Elec       q    Type
REMARK                         _______ _______ _______ _____ _____    ______ ____
ROOT
ATOM      1  O   HOH     1     -13.027   4.594 -15.315  0.00  0.00    +0.000 OA
ENDROOT
TORSDOF 0
REMARK  Name = ../refined-set-2016/4asd/4asd_pocket.pdb
REMARK  253 active torsions:
REMARK  status: ('A' for Active; 'I' for Inactive)
REMARK    1  A    between atoms: _1  and  _3
REMARK    2  A    between atoms: _3  and  _4
REMARK    3  A    between atoms: _3  and  _6
REMARK    4  A    between atoms: _6  and  _7
REMARK    5  A    between atoms: _10  and  _12
REMARK    6  A    between atoms: _12  and  _13
REMARK    7  A    between atoms: _12  and  _15
REMARK    8  A    between atoms: _15  and  _16
REMARK    9  A    between atoms: _19  and  _21
REMARK   10  A    between atoms: _21  and  _22
REMARK   11  A    between atoms: _21  and  _24
REMARK   12  A    between atoms: _24  and  _25
REMARK   13  A    between atoms: _25  and  _26
REMARK   14  A    between atoms: _26  and  _27
REMARK   15  A    between atoms: _27  and  _28
REMARK   16  A    between atoms: _33  and  _34
REMARK   17  A    between atoms: _39  and  _41
REMARK   18  A    between atoms: _41  and  _42
REMARK   19  A    between atoms: _41  and  _44
REMARK   20  A    between atoms: _44  and  _45
REMARK   21  A    between atoms: _48  and  _50
REMARK   22  A    between atoms: _50  and  _51
REMARK   23  A    between atoms: _53  and  _55
REMARK   24  A    between atoms: _55  and  _56
REMARK   25  A    between atoms: _55  and  _58
REMARK   26  A    between atoms: _58  and  _59
REMARK   27  A    between atoms: _59  and  _60
REMARK   28  A    between atoms: _65  and  _67
REMARK   29  A    between atoms: _67  and  _68
REMARK   30  A    between atoms: _67  and  _70
REMARK   31  A    between atoms: _73  and  _75
REMARK   32  A    between atoms: _75  and  _76
REMARK   33  A    between atoms: _75  and  _78
REMARK   34  A    between atoms: _78  and  _79
REMARK   35  A    between atoms: _82  and  _84
REMARK   36  A    between atoms: _84  and  _85
REMARK   37  A    between atoms: _84  and  _87
REMARK   38  A    between atoms: _87  and  _88
REMARK   39  A    between atoms: _88  and  _89
REMARK   40  A    between atoms: _92  and  _94
REMARK   41  A    between atoms: _94  and  _95
REMARK   42  A    between atoms: _94  and  _97
REMARK   43  A    between atoms: _97  and  _98
REMARK   44  A    between atoms: _101  and  _103
REMARK   45  A    between atoms: _103  and  _104
REMARK   46  A    between atoms: _103  and  _106
REMARK   47  A    between atoms: _109  and  _111
REMARK   48  A    between atoms: _111  and  _112
REMARK   49  A    between atoms: _115  and  _117
REMARK   50  A    between atoms: _117  and  _118
REMARK   51  A    between atoms: _117  and  _120
REMARK   52  A    between atoms: _123  and  _125
REMARK   53  A    between atoms: _125  and  _126
REMARK   54  A    between atoms: _125  and  _128
REMARK   55  A    between atoms: _128  and  _129
REMARK   56  A    between atoms: _129  and  _130
REMARK   57  A    between atoms: _130  and  _131
REMARK   58  A    between atoms: _131  and  _132
REMARK   59  A    between atoms: _136  and  _138
REMARK   60  A    between atoms: _138  and  _139
REMARK   61  A    between atoms: _138  and  _141
REMARK   62  A    between atoms: _141  and  _142
REMARK   63  A    between atoms: _142  and  _143
REMARK   64  A    between atoms: _145  and  _147
REMARK   65  A    between atoms: _147  and  _148
REMARK   66  A    between atoms: _147  and  _150
REMARK   67  A    between atoms: _150  and  _151
REMARK   68  A    between atoms: _154  and  _156
REMARK   69  A    between atoms: _156  and  _157
REMARK   70  A    between atoms: _156  and  _159
REMARK   71  A    between atoms: _159  and  _160
REMARK   72  A    between atoms: _162  and  _164
REMARK   73  A    between atoms: _164  and  _165
REMARK   74  A    between atoms: _164  and  _167
REMARK   75  A    between atoms: _167  and  _168
REMARK   76  A    between atoms: _168  and  _169
REMARK   77  A    between atoms: _172  and  _174
REMARK   78  A    between atoms: _174  and  _175
REMARK   79  A    between atoms: _174  and  _177
REMARK   80  A    between atoms: _177  and  _178
REMARK   81  A    between atoms: _181  and  _183
REMARK   82  A    between atoms: _183  and  _184
REMARK   83  A    between atoms: _183  and  _186
REMARK   84  A    between atoms: _186  and  _187
REMARK   85  A    between atoms: _190  and  _192
REMARK   86  A    between atoms: _192  and  _193
REMARK   87  A    between atoms: _192  and  _195
REMARK   88  A    between atoms: _195  and  _196
REMARK   89  A    between atoms: _199  and  _201
REMARK   90  A    between atoms: _201  and  _202
REMARK   91  A    between atoms: _201  and  _204
REMARK   92  A    between atoms: _204  and  _205
REMARK   93  A    between atoms: _208  and  _210
REMARK   94  A    between atoms: _210  and  _211
REMARK   95  A    between atoms: _213  and  _215
REMARK   96  A    between atoms: _215  and  _216
REMARK   97  A    between atoms: _215  and  _218
REMARK   98  A    between atoms: _218  and  _219
REMARK   99  A    between atoms: _224  and  _226
REMARK  100  A    between atoms: _226  and  _227
REMARK  101  A    between atoms: _226  and  _229
REMARK  102  A    between atoms: _232  and  _234
REMARK  103  A    between atoms: _234  and  _235
REMARK  104  A    between atoms: _234  and  _237
REMARK  105  A    between atoms: _240  and  _242
REMARK  106  A    between atoms: _242  and  _243
REMARK  107  A    between atoms: _242  and  _245
REMARK  108  A    between atoms: _245  and  _246
REMARK  109  A    between atoms: _251  and  _253
REMARK  110  A    between atoms: _253  and  _254
REMARK  111  A    between atoms: _253  and  _256
REMARK  112  A    between atoms: _256  and  _257
REMARK  113  A    between atoms: _260  and  _262
REMARK  114  A    between atoms: _262  and  _263
REMARK  115  A    between atoms: _262  and  _265
REMARK  116  A    between atoms: _268  and  _270
REMARK  117  A    between atoms: _270  and  _271
REMARK  118  A    between atoms: _270  and  _273
REMARK  119  A    between atoms: _273  and  _274
REMARK  120  A    between atoms: _277  and  _279
REMARK  121  A    between atoms: _279  and  _280
REMARK  122  A    between atoms: _279  and  _282
REMARK  123  A    between atoms: _285  and  _287
REMARK  124  A    between atoms: _287  and  _288
REMARK  125  A    between atoms: _287  and  _290
REMARK  126  A    between atoms: _290  and  _291
REMARK  127  A    between atoms: _291  and  _292
REMARK  128  A    between atoms: _295  and  _297
REMARK  129  A    between atoms: _297  and  _298
REMARK  130  A    between atoms: _297  and  _300
REMARK  131  A    between atoms: _300  and  _301
REMARK  132  A    between atoms: _307  and  _309
REMARK  133  A    between atoms: _309  and  _310
REMARK  134  A    between atoms: _309  and  _312
REMARK  135  A    between atoms: _314  and  _316
REMARK  136  A    between atoms: _316  and  _317
REMARK  137  A    between atoms: _316  and  _319
REMARK  138  A    between atoms: _319  and  _320
REMARK  139  A    between atoms: _320  and  _321
REMARK  140  A    between atoms: _321  and  _322
REMARK  141  A    between atoms: _322  and  _323
REMARK  142  A    between atoms: _327  and  _329
REMARK  143  A    between atoms: _329  and  _330
REMARK  144  A    between atoms: _329  and  _332
REMARK  145  A    between atoms: _332  and  _333
REMARK  146  A    between atoms: _339  and  _341
REMARK  147  A    between atoms: _341  and  _342
REMARK  148  A    between atoms: _344  and  _346
REMARK  149  A    between atoms: _346  and  _347
REMARK  150  A    between atoms: _346  and  _349
REMARK  151  A    between atoms: _349  and  _350
REMARK  152  A    between atoms: _355  and  _357
REMARK  153  A    between atoms: _357  and  _358
REMARK  154  A    between atoms: _360  and  _362
REMARK  155  A    between atoms: _362  and  _363
REMARK  156  A    between atoms: _362  and  _365
REMARK  157  A    between atoms: _365  and  _366
REMARK  158  A    between atoms: _366  and  _367
REMARK  159  A    between atoms: _369  and  _371
REMARK  160  A    between atoms: _371  and  _372
REMARK  161  A    between atoms: _371  and  _374
REMARK  162  A    between atoms: _374  and  _375
REMARK  163  A    between atoms: _381  and  _383
REMARK  164  A    between atoms: _383  and  _384
REMARK  165  A    between atoms: _383  and  _386
REMARK  166  A    between atoms: _386  and  _387
REMARK  167  A    between atoms: _390  and  _392
REMARK  168  A    between atoms: _392  and  _393
REMARK  169  A    between atoms: _392  and  _395
REMARK  170  A    between atoms: _397  and  _399
REMARK  171  A    between atoms: _399  and  _400
REMARK  172  A    between atoms: _399  and  _402
REMARK  173  A    between atoms: _402  and  _403
REMARK  174  A    between atoms: _406  and  _408
REMARK  175  A    between atoms: _408  and  _409
REMARK  176  A    between atoms: _408  and  _411
REMARK  177  A    between atoms: _411  and  _412
REMARK  178  A    between atoms: _417  and  _419
REMARK  179  A    between atoms: _419  and  _420
REMARK  180  A    between atoms: _419  and  _422
REMARK  181  A    between atoms: _422  and  _423
REMARK  182  A    between atoms: _423  and  _424
REMARK  183  A    between atoms: _424  and  _425
REMARK  184  A    between atoms: _434  and  _436
REMARK  185  A    between atoms: _436  and  _437
REMARK  186  A    between atoms: _436  and  _439
REMARK  187  A    between atoms: _439  and  _440
REMARK  188  A    between atoms: _443  and  _445
REMARK  189  A    between atoms: _445  and  _446
REMARK  190  A    between atoms: _445  and  _448
REMARK  191  A    between atoms: _448  and  _449
REMARK  192  A    between atoms: _452  and  _454
REMARK  193  A    between atoms: _454  and  _455
REMARK  194  A    between atoms: _454  and  _457
REMARK  195  A    between atoms: _457  and  _458
REMARK  196  A    between atoms: _458  and  _459
REMARK  197  A    between atoms: _459  and  _460
REMARK  198  A    between atoms: _469  and  _471
REMARK  199  A    between atoms: _471  and  _472
REMARK  200  A    between atoms: _471  and  _474
REMARK  201  A    between atoms: _474  and  _475
REMARK  202  A    between atoms: _480  and  _482
REMARK  203  A    between atoms: _482  and  _483
REMARK  204  A    between atoms: _482  and  _485
REMARK  205  A    between atoms: _485  and  _486
REMARK  206  A    between atoms: _489  and  _491
REMARK  207  A    between atoms: _491  and  _492
REMARK  208  A    between atoms: _491  and  _494
REMARK  209  A    between atoms: _494  and  _495
REMARK  210  A    between atoms: _498  and  _500
REMARK  211  A    between atoms: _500  and  _501
REMARK  212  A    between atoms: _500  and  _503
REMARK  213  A    between atoms: _503  and  _504
REMARK  214  A    between atoms: _507  and  _509
REMARK  215  A    between atoms: _509  and  _510
REMARK  216  A    between atoms: _509  and  _512
REMARK  217  A    between atoms: _512  and  _513
REMARK  218  A    between atoms: _515  and  _517
REMARK  219  A    between atoms: _517  and  _518
REMARK  220  A    between atoms: _517  and  _520
REMARK  221  A    between atoms: _520  and  _521
REMARK  222  A    between atoms: _521  and  _522
REMARK  223  A    between atoms: _522  and  _523
REMARK  224  A    between atoms: _523  and  _524
REMARK  225  A    between atoms: _528  and  _530
REMARK  226  A    between atoms: _530  and  _531
REMARK  227  A    between atoms: _530  and  _533
REMARK  228  A    between atoms: _533  and  _534
REMARK  229  A    between atoms: _537  and  _539
REMARK  230  A    between atoms: _539  and  _540
REMARK  231  A    between atoms: _539  and  _542
REMARK  232  A    between atoms: _544  and  _546
REMARK  233  A    between atoms: _546  and  _547
REMARK  234  A    between atoms: _546  and  _549
REMARK  235  A    between atoms: _549  and  _550
REMARK  236  A    between atoms: _553  and  _555
REMARK  237  A    between atoms: _555  and  _556
REMARK  238  A    between atoms: _555  and  _558
REMARK  239  A    between atoms: _558  and  _559
REMARK  240  A    between atoms: _565  and  _567
REMARK  241  A    between atoms: _567  and  _568
REMARK  242  A    between atoms: _570  and  _572
REMARK  243  A    between atoms: _572  and  _573
REMARK  244  A    between atoms: _572  and  _575
REMARK  245  A    between atoms: _575  and  _576
REMARK  246  A    between atoms: _579  and  _581
REMARK  247  A    between atoms: _581  and  _582
REMARK  248  A    between atoms: _585  and  _587
REMARK  249  A    between atoms: _587  and  _588
REMARK  250  A    between atoms: _587  and  _590
REMARK  251  A    between atoms: _590  and  _591
REMARK  252  A    between atoms: _591  and  _592
REMARK  253  A    between atoms: _592  and  _593
REMARK                            x       y       z     vdW  Elec       q    Type
REMARK                         _______ _______ _______ _____ _____    ______ ____
ROOT
ATOM      1  O   HOH     1     -12.294   3.652 -11.020  0.00  0.00    +0.000 OA
ENDROOT
TORSDOF 0
REMARK  Name = ../refined-set-2016/4asd/4asd_pocket.pdb
REMARK  253 active torsions:
REMARK  status: ('A' for Active; 'I' for Inactive)
REMARK    1  A    between atoms: _1  and  _3
REMARK    2  A    between atoms: _3  and  _4
REMARK    3  A    between atoms: _3  and  _6
REMARK    4  A    between atoms: _6  and  _7
REMARK    5  A    between atoms: _10  and  _12
REMARK    6  A    between atoms: _12  and  _13
REMARK    7  A    between atoms: _12  and  _15
REMARK    8  A    between atoms: _15  and  _16
REMARK    9  A    between atoms: _19  and  _21
REMARK   10  A    between atoms: _21  and  _22
REMARK   11  A    between atoms: _21  and  _24
REMARK   12  A    between atoms: _24  and  _25
REMARK   13  A    between atoms: _25  and  _26
REMARK   14  A    between atoms: _26  and  _27
REMARK   15  A    between atoms: _27  and  _28
REMARK   16  A    between atoms: _33  and  _34
REMARK   17  A    between atoms: _39  and  _41
REMARK   18  A    between atoms: _41  and  _42
REMARK   19  A    between atoms: _41  and  _44
REMARK   20  A    between atoms: _44  and  _45
REMARK   21  A    between atoms: _48  and  _50
REMARK   22  A    between atoms: _50  and  _51
REMARK   23  A    between atoms: _53  and  _55
REMARK   24  A    between atoms: _55  and  _56
REMARK   25  A    between atoms: _55  and  _58
REMARK   26  A    between atoms: _58  and  _59
REMARK   27  A    between atoms: _59  and  _60
REMARK   28  A    between atoms: _65  and  _67
REMARK   29  A    between atoms: _67  and  _68
REMARK   30  A    between atoms: _67  and  _70
REMARK   31  A    between atoms: _73  and  _75
REMARK   32  A    between atoms: _75  and  _76
REMARK   33  A    between atoms: _75  and  _78
REMARK   34  A    between atoms: _78  and  _79
REMARK   35  A    between atoms: _82  and  _84
REMARK   36  A    between atoms: _84  and  _85
REMARK   37  A    between atoms: _84  and  _87
REMARK   38  A    between atoms: _87  and  _88
REMARK   39  A    between atoms: _88  and  _89
REMARK   40  A    between atoms: _92  and  _94
REMARK   41  A    between atoms: _94  and  _95
REMARK   42  A    between atoms: _94  and  _97
REMARK   43  A    between atoms: _97  and  _98
REMARK   44  A    between atoms: _101  and  _103
REMARK   45  A    between atoms: _103  and  _104
REMARK   46  A    between atoms: _103  and  _106
REMARK   47  A    between atoms: _109  and  _111
REMARK   48  A    between atoms: _111  and  _112
REMARK   49  A    between atoms: _115  and  _117
REMARK   50  A    between atoms: _117  and  _118
REMARK   51  A    between atoms: _117  and  _120
REMARK   52  A    between atoms: _123  and  _125
REMARK   53  A    between atoms: _125  and  _126
REMARK   54  A    between atoms: _125  and  _128
REMARK   55  A    between atoms: _128  and  _129
REMARK   56  A    between atoms: _129  and  _130
REMARK   57  A    between atoms: _130  and  _131
REMARK   58  A    between atoms: _131  and  _132
REMARK   59  A    between atoms: _136  and  _138
REMARK   60  A    between atoms: _138  and  _139
REMARK   61  A    between atoms: _138  and  _141
REMARK   62  A    between atoms: _141  and  _142
REMARK   63  A    between atoms: _142  and  _143
REMARK   64  A    between atoms: _145  and  _147
REMARK   65  A    between atoms: _147  and  _148
REMARK   66  A    between atoms: _147  and  _150
REMARK   67  A    between atoms: _150  and  _151
REMARK   68  A    between atoms: _154  and  _156
REMARK   69  A    between atoms: _156  and  _157
REMARK   70  A    between atoms: _156  and  _159
REMARK   71  A    between atoms: _159  and  _160
REMARK   72  A    between atoms: _162  and  _164
REMARK   73  A    between atoms: _164  and  _165
REMARK   74  A    between atoms: _164  and  _167
REMARK   75  A    between atoms: _167  and  _168
REMARK   76  A    between atoms: _168  and  _169
REMARK   77  A    between atoms: _172  and  _174
REMARK   78  A    between atoms: _174  and  _175
REMARK   79  A    between atoms: _174  and  _177
REMARK   80  A    between atoms: _177  and  _178
REMARK   81  A    between atoms: _181  and  _183
REMARK   82  A    between atoms: _183  and  _184
REMARK   83  A    between atoms: _183  and  _186
REMARK   84  A    between atoms: _186  and  _187
REMARK   85  A    between atoms: _190  and  _192
REMARK   86  A    between atoms: _192  and  _193
REMARK   87  A    between atoms: _192  and  _195
REMARK   88  A    between atoms: _195  and  _196
REMARK   89  A    between atoms: _199  and  _201
REMARK   90  A    between atoms: _201  and  _202
REMARK   91  A    between atoms: _201  and  _204
REMARK   92  A    between atoms: _204  and  _205
REMARK   93  A    between atoms: _208  and  _210
REMARK   94  A    between atoms: _210  and  _211
REMARK   95  A    between atoms: _213  and  _215
REMARK   96  A    between atoms: _215  and  _216
REMARK   97  A    between atoms: _215  and  _218
REMARK   98  A    between atoms: _218  and  _219
REMARK   99  A    between atoms: _224  and  _226
REMARK  100  A    between atoms: _226  and  _227
REMARK  101  A    between atoms: _226  and  _229
REMARK  102  A    between atoms: _232  and  _234
REMARK  103  A    between atoms: _234  and  _235
REMARK  104  A    between atoms: _234  and  _237
REMARK  105  A    between atoms: _240  and  _242
REMARK  106  A    between atoms: _242  and  _243
REMARK  107  A    between atoms: _242  and  _245
REMARK  108  A    between atoms: _245  and  _246
REMARK  109  A    between atoms: _251  and  _253
REMARK  110  A    between atoms: _253  and  _254
REMARK  111  A    between atoms: _253  and  _256
REMARK  112  A    between atoms: _256  and  _257
REMARK  113  A    between atoms: _260  and  _262
REMARK  114  A    between atoms: _262  and  _263
REMARK  115  A    between atoms: _262  and  _265
REMARK  116  A    between atoms: _268  and  _270
REMARK  117  A    between atoms: _270  and  _271
REMARK  118  A    between atoms: _270  and  _273
REMARK  119  A    between atoms: _273  and  _274
REMARK  120  A    between atoms: _277  and  _279
REMARK  121  A    between atoms: _279  and  _280
REMARK  122  A    between atoms: _279  and  _282
REMARK  123  A    between atoms: _285  and  _287
REMARK  124  A    between atoms: _287  and  _288
REMARK  125  A    between atoms: _287  and  _290
REMARK  126  A    between atoms: _290  and  _291
REMARK  127  A    between atoms: _291  and  _292
REMARK  128  A    between atoms: _295  and  _297
REMARK  129  A    between atoms: _297  and  _298
REMARK  130  A    between atoms: _297  and  _300
REMARK  131  A    between atoms: _300  and  _301
REMARK  132  A    between atoms: _307  and  _309
REMARK  133  A    between atoms: _309  and  _310
REMARK  134  A    between atoms: _309  and  _312
REMARK  135  A    between atoms: _314  and  _316
REMARK  136  A    between atoms: _316  and  _317
REMARK  137  A    between atoms: _316  and  _319
REMARK  138  A    between atoms: _319  and  _320
REMARK  139  A    between atoms: _320  and  _321
REMARK  140  A    between atoms: _321  and  _322
REMARK  141  A    between atoms: _322  and  _323
REMARK  142  A    between atoms: _327  and  _329
REMARK  143  A    between atoms: _329  and  _330
REMARK  144  A    between atoms: _329  and  _332
REMARK  145  A    between atoms: _332  and  _333
REMARK  146  A    between atoms: _339  and  _341
REMARK  147  A    between atoms: _341  and  _342
REMARK  148  A    between atoms: _344  and  _346
REMARK  149  A    between atoms: _346  and  _347
REMARK  150  A    between atoms: _346  and  _349
REMARK  151  A    between atoms: _349  and  _350
REMARK  152  A    between atoms: _355  and  _357
REMARK  153  A    between atoms: _357  and  _358
REMARK  154  A    between atoms: _360  and  _362
REMARK  155  A    between atoms: _362  and  _363
REMARK  156  A    between atoms: _362  and  _365
REMARK  157  A    between atoms: _365  and  _366
REMARK  158  A    between atoms: _366  and  _367
REMARK  159  A    between atoms: _369  and  _371
REMARK  160  A    between atoms: _371  and  _372
REMARK  161  A    between atoms: _371  and  _374
REMARK  162  A    between atoms: _374  and  _375
REMARK  163  A    between atoms: _381  and  _383
REMARK  164  A    between atoms: _383  and  _384
REMARK  165  A    between atoms: _383  and  _386
REMARK  166  A    between atoms: _386  and  _387
REMARK  167  A    between atoms: _390  and  _392
REMARK  168  A    between atoms: _392  and  _393
REMARK  169  A    between atoms: _392  and  _395
REMARK  170  A    between atoms: _397  and  _399
REMARK  171  A    between atoms: _399  and  _400
REMARK  172  A    between atoms: _399  and  _402
REMARK  173  A    between atoms: _402  and  _403
REMARK  174  A    between atoms: _406  and  _408
REMARK  175  A    between atoms: _408  and  _409
REMARK  176  A    between atoms: _408  and  _411
REMARK  177  A    between atoms: _411  and  _412
REMARK  178  A    between atoms: _417  and  _419
REMARK  179  A    between atoms: _419  and  _420
REMARK  180  A    between atoms: _419  and  _422
REMARK  181  A    between atoms: _422  and  _423
REMARK  182  A    between atoms: _423  and  _424
REMARK  183  A    between atoms: _424  and  _425
REMARK  184  A    between atoms: _434  and  _436
REMARK  185  A    between atoms: _436  and  _437
REMARK  186  A    between atoms: _436  and  _439
REMARK  187  A    between atoms: _439  and  _440
REMARK  188  A    between atoms: _443  and  _445
REMARK  189  A    between atoms: _445  and  _446
REMARK  190  A    between atoms: _445  and  _448
REMARK  191  A    between atoms: _448  and  _449
REMARK  192  A    between atoms: _452  and  _454
REMARK  193  A    between atoms: _454  and  _455
REMARK  194  A    between atoms: _454  and  _457
REMARK  195  A    between atoms: _457  and  _458
REMARK  196  A    between atoms: _458  and  _459
REMARK  197  A    between atoms: _459  and  _460
REMARK  198  A    between atoms: _469  and  _471
REMARK  199  A    between atoms: _471  and  _472
REMARK  200  A    between atoms: _471  and  _474
REMARK  201  A    between atoms: _474  and  _475
REMARK  202  A    between atoms: _480  and  _482
REMARK  203  A    between atoms: _482  and  _483
REMARK  204  A    between atoms: _482  and  _485
REMARK  205  A    between atoms: _485  and  _486
REMARK  206  A    between atoms: _489  and  _491
REMARK  207  A    between atoms: _491  and  _492
REMARK  208  A    between atoms: _491  and  _494
REMARK  209  A    between atoms: _494  and  _495
REMARK  210  A    between atoms: _498  and  _500
REMARK  211  A    between atoms: _500  and  _501
REMARK  212  A    between atoms: _500  and  _503
REMARK  213  A    between atoms: _503  and  _504
REMARK  214  A    between atoms: _507  and  _509
REMARK  215  A    between atoms: _509  and  _510
REMARK  216  A    between atoms: _509  and  _512
REMARK  217  A    between atoms: _512  and  _513
REMARK  218  A    between atoms: _515  and  _517
REMARK  219  A    between atoms: _517  and  _518
REMARK  220  A    between atoms: _517  and  _520
REMARK  221  A    between atoms: _520  and  _521
REMARK  222  A    between atoms: _521  and  _522
REMARK  223  A    between atoms: _522  and  _523
REMARK  224  A    between atoms: _523  and  _524
REMARK  225  A    between atoms: _528  and  _530
REMARK  226  A    between atoms: _530  and  _531
REMARK  227  A    between atoms: _530  and  _533
REMARK  228  A    between atoms: _533  and  _534
REMARK  229  A    between atoms: _537  and  _539
REMARK  230  A    between atoms: _539  and  _540
REMARK  231  A    between atoms: _539  and  _542
REMARK  232  A    between atoms: _544  and  _546
REMARK  233  A    between atoms: _546  and  _547
REMARK  234  A    between atoms: _546  and  _549
REMARK  235  A    between atoms: _549  and  _550
REMARK  236  A    between atoms: _553  and  _555
REMARK  237  A    between atoms: _555  and  _556
REMARK  238  A    between atoms: _555  and  _558
REMARK  239  A    between atoms: _558  and  _559
REMARK  240  A    between atoms: _565  and  _567
REMARK  241  A    between atoms: _567  and  _568
REMARK  242  A    between atoms: _570  and  _572
REMARK  243  A    between atoms: _572  and  _573
REMARK  244  A    between atoms: _572  and  _575
REMARK  245  A    between atoms: _575  and  _576
REMARK  246  A    between atoms: _579  and  _581
REMARK  247  A    between atoms: _581  and  _582
REMARK  248  A    between atoms: _585  and  _587
REMARK  249  A    between atoms: _587  and  _588
REMARK  250  A    between atoms: _587  and  _590
REMARK  251  A    between atoms: _590  and  _591
REMARK  252  A    between atoms: _591  and  _592
REMARK  253  A    between atoms: _592  and  _593
REMARK                            x       y       z     vdW  Elec       q    Type
REMARK                         _______ _______ _______ _____ _____    ______ ____
ROOT
ATOM      1  O   HOH     1     -11.338   7.139 -12.802  0.00  0.00    +0.000 OA
ENDROOT
TORSDOF 0
REMARK  Name = ../refined-set-2016/4asd/4asd_pocket.pdb
REMARK  253 active torsions:
REMARK  status: ('A' for Active; 'I' for Inactive)
REMARK    1  A    between atoms: _1  and  _3
REMARK    2  A    between atoms: _3  and  _4
REMARK    3  A    between atoms: _3  and  _6
REMARK    4  A    between atoms: _6  and  _7
REMARK    5  A    between atoms: _10  and  _12
REMARK    6  A    between atoms: _12  and  _13
REMARK    7  A    between atoms: _12  and  _15
REMARK    8  A    between atoms: _15  and  _16
REMARK    9  A    between atoms: _19  and  _21
REMARK   10  A    between atoms: _21  and  _22
REMARK   11  A    between atoms: _21  and  _24
REMARK   12  A    between atoms: _24  and  _25
REMARK   13  A    between atoms: _25  and  _26
REMARK   14  A    between atoms: _26  and  _27
REMARK   15  A    between atoms: _27  and  _28
REMARK   16  A    between atoms: _33  and  _34
REMARK   17  A    between atoms: _39  and  _41
REMARK   18  A    between atoms: _41  and  _42
REMARK   19  A    between atoms: _41  and  _44
REMARK   20  A    between atoms: _44  and  _45
REMARK   21  A    between atoms: _48  and  _50
REMARK   22  A    between atoms: _50  and  _51
REMARK   23  A    between atoms: _53  and  _55
REMARK   24  A    between atoms: _55  and  _56
REMARK   25  A    between atoms: _55  and  _58
REMARK   26  A    between atoms: _58  and  _59
REMARK   27  A    between atoms: _59  and  _60
REMARK   28  A    between atoms: _65  and  _67
REMARK   29  A    between atoms: _67  and  _68
REMARK   30  A    between atoms: _67  and  _70
REMARK   31  A    between atoms: _73  and  _75
REMARK   32  A    between atoms: _75  and  _76
REMARK   33  A    between atoms: _75  and  _78
REMARK   34  A    between atoms: _78  and  _79
REMARK   35  A    between atoms: _82  and  _84
REMARK   36  A    between atoms: _84  and  _85
REMARK   37  A    between atoms: _84  and  _87
REMARK   38  A    between atoms: _87  and  _88
REMARK   39  A    between atoms: _88  and  _89
REMARK   40  A    between atoms: _92  and  _94
REMARK   41  A    between atoms: _94  and  _95
REMARK   42  A    between atoms: _94  and  _97
REMARK   43  A    between atoms: _97  and  _98
REMARK   44  A    between atoms: _101  and  _103
REMARK   45  A    between atoms: _103  and  _104
REMARK   46  A    between atoms: _103  and  _106
REMARK   47  A    between atoms: _109  and  _111
REMARK   48  A    between atoms: _111  and  _112
REMARK   49  A    between atoms: _115  and  _117
REMARK   50  A    between atoms: _117  and  _118
REMARK   51  A    between atoms: _117  and  _120
REMARK   52  A    between atoms: _123  and  _125
REMARK   53  A    between atoms: _125  and  _126
REMARK   54  A    between atoms: _125  and  _128
REMARK   55  A    between atoms: _128  and  _129
REMARK   56  A    between atoms: _129  and  _130
REMARK   57  A    between atoms: _130  and  _131
REMARK   58  A    between atoms: _131  and  _132
REMARK   59  A    between atoms: _136  and  _138
REMARK   60  A    between atoms: _138  and  _139
REMARK   61  A    between atoms: _138  and  _141
REMARK   62  A    between atoms: _141  and  _142
REMARK   63  A    between atoms: _142  and  _143
REMARK   64  A    between atoms: _145  and  _147
REMARK   65  A    between atoms: _147  and  _148
REMARK   66  A    between atoms: _147  and  _150
REMARK   67  A    between atoms: _150  and  _151
REMARK   68  A    between atoms: _154  and  _156
REMARK   69  A    between atoms: _156  and  _157
REMARK   70  A    between atoms: _156  and  _159
REMARK   71  A    between atoms: _159  and  _160
REMARK   72  A    between atoms: _162  and  _164
REMARK   73  A    between atoms: _164  and  _165
REMARK   74  A    between atoms: _164  and  _167
REMARK   75  A    between atoms: _167  and  _168
REMARK   76  A    between atoms: _168  and  _169
REMARK   77  A    between atoms: _172  and  _174
REMARK   78  A    between atoms: _174  and  _175
REMARK   79  A    between atoms: _174  and  _177
REMARK   80  A    between atoms: _177  and  _178
REMARK   81  A    between atoms: _181  and  _183
REMARK   82  A    between atoms: _183  and  _184
REMARK   83  A    between atoms: _183  and  _186
REMARK   84  A    between atoms: _186  and  _187
REMARK   85  A    between atoms: _190  and  _192
REMARK   86  A    between atoms: _192  and  _193
REMARK   87  A    between atoms: _192  and  _195
REMARK   88  A    between atoms: _195  and  _196
REMARK   89  A    between atoms: _199  and  _201
REMARK   90  A    between atoms: _201  and  _202
REMARK   91  A    between atoms: _201  and  _204
REMARK   92  A    between atoms: _204  and  _205
REMARK   93  A    between atoms: _208  and  _210
REMARK   94  A    between atoms: _210  and  _211
REMARK   95  A    between atoms: _213  and  _215
REMARK   96  A    between atoms: _215  and  _216
REMARK   97  A    between atoms: _215  and  _218
REMARK   98  A    between atoms: _218  and  _219
REMARK   99  A    between atoms: _224  and  _226
REMARK  100  A    between atoms: _226  and  _227
REMARK  101  A    between atoms: _226  and  _229
REMARK  102  A    between atoms: _232  and  _234
REMARK  103  A    between atoms: _234  and  _235
REMARK  104  A    between atoms: _234  and  _237
REMARK  105  A    between atoms: _240  and  _242
REMARK  106  A    between atoms: _242  and  _243
REMARK  107  A    between atoms: _242  and  _245
REMARK  108  A    between atoms: _245  and  _246
REMARK  109  A    between atoms: _251  and  _253
REMARK  110  A    between atoms: _253  and  _254
REMARK  111  A    between atoms: _253  and  _256
REMARK  112  A    between atoms: _256  and  _257
REMARK  113  A    between atoms: _260  and  _262
REMARK  114  A    between atoms: _262  and  _263
REMARK  115  A    between atoms: _262  and  _265
REMARK  116  A    between atoms: _268  and  _270
REMARK  117  A    between atoms: _270  and  _271
REMARK  118  A    between atoms: _270  and  _273
REMARK  119  A    between atoms: _273  and  _274
REMARK  120  A    between atoms: _277  and  _279
REMARK  121  A    between atoms: _279  and  _280
REMARK  122  A    between atoms: _279  and  _282
REMARK  123  A    between atoms: _285  and  _287
REMARK  124  A    between atoms: _287  and  _288
REMARK  125  A    between atoms: _287  and  _290
REMARK  126  A    between atoms: _290  and  _291
REMARK  127  A    between atoms: _291  and  _292
REMARK  128  A    between atoms: _295  and  _297
REMARK  129  A    between atoms: _297  and  _298
REMARK  130  A    between atoms: _297  and  _300
REMARK  131  A    between atoms: _300  and  _301
REMARK  132  A    between atoms: _307  and  _309
REMARK  133  A    between atoms: _309  and  _310
REMARK  134  A    between atoms: _309  and  _312
REMARK  135  A    between atoms: _314  and  _316
REMARK  136  A    between atoms: _316  and  _317
REMARK  137  A    between atoms: _316  and  _319
REMARK  138  A    between atoms: _319  and  _320
REMARK  139  A    between atoms: _320  and  _321
REMARK  140  A    between atoms: _321  and  _322
REMARK  141  A    between atoms: _322  and  _323
REMARK  142  A    between atoms: _327  and  _329
REMARK  143  A    between atoms: _329  and  _330
REMARK  144  A    between atoms: _329  and  _332
REMARK  145  A    between atoms: _332  and  _333
REMARK  146  A    between atoms: _339  and  _341
REMARK  147  A    between atoms: _341  and  _342
REMARK  148  A    between atoms: _344  and  _346
REMARK  149  A    between atoms: _346  and  _347
REMARK  150  A    between atoms: _346  and  _349
REMARK  151  A    between atoms: _349  and  _350
REMARK  152  A    between atoms: _355  and  _357
REMARK  153  A    between atoms: _357  and  _358
REMARK  154  A    between atoms: _360  and  _362
REMARK  155  A    between atoms: _362  and  _363
REMARK  156  A    between atoms: _362  and  _365
REMARK  157  A    between atoms: _365  and  _366
REMARK  158  A    between atoms: _366  and  _367
REMARK  159  A    between atoms: _369  and  _371
REMARK  160  A    between atoms: _371  and  _372
REMARK  161  A    between atoms: _371  and  _374
REMARK  162  A    between atoms: _374  and  _375
REMARK  163  A    between atoms: _381  and  _383
REMARK  164  A    between atoms: _383  and  _384
REMARK  165  A    between atoms: _383  and  _386
REMARK  166  A    between atoms: _386  and  _387
REMARK  167  A    between atoms: _390  and  _392
REMARK  168  A    between atoms: _392  and  _393
REMARK  169  A    between atoms: _392  and  _395
REMARK  170  A    between atoms: _397  and  _399
REMARK  171  A    between atoms: _399  and  _400
REMARK  172  A    between atoms: _399  and  _402
REMARK  173  A    between atoms: _402  and  _403
REMARK  174  A    between atoms: _406  and  _408
REMARK  175  A    between atoms: _408  and  _409
REMARK  176  A    between atoms: _408  and  _411
REMARK  177  A    between atoms: _411  and  _412
REMARK  178  A    between atoms: _417  and  _419
REMARK  179  A    between atoms: _419  and  _420
REMARK  180  A    between atoms: _419  and  _422
REMARK  181  A    between atoms: _422  and  _423
REMARK  182  A    between atoms: _423  and  _424
REMARK  183  A    between atoms: _424  and  _425
REMARK  184  A    between atoms: _434  and  _436
REMARK  185  A    between atoms: _436  and  _437
REMARK  186  A    between atoms: _436  and  _439
REMARK  187  A    between atoms: _439  and  _440
REMARK  188  A    between atoms: _443  and  _445
REMARK  189  A    between atoms: _445  and  _446
REMARK  190  A    between atoms: _445  and  _448
REMARK  191  A    between atoms: _448  and  _449
REMARK  192  A    between atoms: _452  and  _454
REMARK  193  A    between atoms: _454  and  _455
REMARK  194  A    between atoms: _454  and  _457
REMARK  195  A    between atoms: _457  and  _458
REMARK  196  A    between atoms: _458  and  _459
REMARK  197  A    between atoms: _459  and  _460
REMARK  198  A    between atoms: _469  and  _471
REMARK  199  A    between atoms: _471  and  _472
REMARK  200  A    between atoms: _471  and  _474
REMARK  201  A    between atoms: _474  and  _475
REMARK  202  A    between atoms: _480  and  _482
REMARK  203  A    between atoms: _482  and  _483
REMARK  204  A    between atoms: _482  and  _485
REMARK  205  A    between atoms: _485  and  _486
REMARK  206  A    between atoms: _489  and  _491
REMARK  207  A    between atoms: _491  and  _492
REMARK  208  A    between atoms: _491  and  _494
REMARK  209  A    between atoms: _494  and  _495
REMARK  210  A    between atoms: _498  and  _500
REMARK  211  A    between atoms: _500  and  _501
REMARK  212  A    between atoms: _500  and  _503
REMARK  213  A    between atoms: _503  and  _504
REMARK  214  A    between atoms: _507  and  _509
REMARK  215  A    between atoms: _509  and  _510
REMARK  216  A    between atoms: _509  and  _512
REMARK  217  A    between atoms: _512  and  _513
REMARK  218  A    between atoms: _515  and  _517
REMARK  219  A    between atoms: _517  and  _518
REMARK  220  A    between atoms: _517  and  _520
REMARK  221  A    between atoms: _520  and  _521
REMARK  222  A    between atoms: _521  and  _522
REMARK  223  A    between atoms: _522  and  _523
REMARK  224  A    between atoms: _523  and  _524
REMARK  225  A    between atoms: _528  and  _530
REMARK  226  A    between atoms: _530  and  _531
REMARK  227  A    between atoms: _530  and  _533
REMARK  228  A    between atoms: _533  and  _534
REMARK  229  A    between atoms: _537  and  _539
REMARK  230  A    between atoms: _539  and  _540
REMARK  231  A    between atoms: _539  and  _542
REMARK  232  A    between atoms: _544  and  _546
REMARK  233  A    between atoms: _546  and  _547
REMARK  234  A    between atoms: _546  and  _549
REMARK  235  A    between atoms: _549  and  _550
REMARK  236  A    between atoms: _553  and  _555
REMARK  237  A    between atoms: _555  and  _556
REMARK  238  A    between atoms: _555  and  _558
REMARK  239  A    between atoms: _558  and  _559
REMARK  240  A    between atoms: _565  and  _567
REMARK  241  A    between atoms: _567  and  _568
REMARK  242  A    between atoms: _570  and  _572
REMARK  243  A    between atoms: _572  and  _573
REMARK  244  A    between atoms: _572  and  _575
REMARK  245  A    between atoms: _575  and  _576
REMARK  246  A    between atoms: _579  and  _581
REMARK  247  A    between atoms: _581  and  _582
REMARK  248  A    between atoms: _585  and  _587
REMARK  249  A    between atoms: _587  and  _588
REMARK  250  A    between atoms: _587  and  _590
REMARK  251  A    between atoms: _590  and  _591
REMARK  252  A    between atoms: _591  and  _592
REMARK  253  A    between atoms: _592  and  _593
REMARK                            x       y       z     vdW  Elec       q    Type
REMARK                         _______ _______ _______ _____ _____    ______ ____
ROOT
ATOM      1  O   HOH     1     -14.715   0.843 -12.553  0.00  0.00    +0.000 OA
ENDROOT
TORSDOF 0
REMARK  Name = ../refined-set-2016/4asd/4asd_pocket.pdb
REMARK  253 active torsions:
REMARK  status: ('A' for Active; 'I' for Inactive)
REMARK    1  A    between atoms: _1  and  _3
REMARK    2  A    between atoms: _3  and  _4
REMARK    3  A    between atoms: _3  and  _6
REMARK    4  A    between atoms: _6  and  _7
REMARK    5  A    between atoms: _10  and  _12
REMARK    6  A    between atoms: _12  and  _13
REMARK    7  A    between atoms: _12  and  _15
REMARK    8  A    between atoms: _15  and  _16
REMARK    9  A    between atoms: _19  and  _21
REMARK   10  A    between atoms: _21  and  _22
REMARK   11  A    between atoms: _21  and  _24
REMARK   12  A    between atoms: _24  and  _25
REMARK   13  A    between atoms: _25  and  _26
REMARK   14  A    between atoms: _26  and  _27
REMARK   15  A    between atoms: _27  and  _28
REMARK   16  A    between atoms: _33  and  _34
REMARK   17  A    between atoms: _39  and  _41
REMARK   18  A    between atoms: _41  and  _42
REMARK   19  A    between atoms: _41  and  _44
REMARK   20  A    between atoms: _44  and  _45
REMARK   21  A    between atoms: _48  and  _50
REMARK   22  A    between atoms: _50  and  _51
REMARK   23  A    between atoms: _53  and  _55
REMARK   24  A    between atoms: _55  and  _56
REMARK   25  A    between atoms: _55  and  _58
REMARK   26  A    between atoms: _58  and  _59
REMARK   27  A    between atoms: _59  and  _60
REMARK   28  A    between atoms: _65  and  _67
REMARK   29  A    between atoms: _67  and  _68
REMARK   30  A    between atoms: _67  and  _70
REMARK   31  A    between atoms: _73  and  _75
REMARK   32  A    between atoms: _75  and  _76
REMARK   33  A    between atoms: _75  and  _78
REMARK   34  A    between atoms: _78  and  _79
REMARK   35  A    between atoms: _82  and  _84
REMARK   36  A    between atoms: _84  and  _85
REMARK   37  A    between atoms: _84  and  _87
REMARK   38  A    between atoms: _87  and  _88
REMARK   39  A    between atoms: _88  and  _89
REMARK   40  A    between atoms: _92  and  _94
REMARK   41  A    between atoms: _94  and  _95
REMARK   42  A    between atoms: _94  and  _97
REMARK   43  A    between atoms: _97  and  _98
REMARK   44  A    between atoms: _101  and  _103
REMARK   45  A    between atoms: _103  and  _104
REMARK   46  A    between atoms: _103  and  _106
REMARK   47  A    between atoms: _109  and  _111
REMARK   48  A    between atoms: _111  and  _112
REMARK   49  A    between atoms: _115  and  _117
REMARK   50  A    between atoms: _117  and  _118
REMARK   51  A    between atoms: _117  and  _120
REMARK   52  A    between atoms: _123  and  _125
REMARK   53  A    between atoms: _125  and  _126
REMARK   54  A    between atoms: _125  and  _128
REMARK   55  A    between atoms: _128  and  _129
REMARK   56  A    between atoms: _129  and  _130
REMARK   57  A    between atoms: _130  and  _131
REMARK   58  A    between atoms: _131  and  _132
REMARK   59  A    between atoms: _136  and  _138
REMARK   60  A    between atoms: _138  and  _139
REMARK   61  A    between atoms: _138  and  _141
REMARK   62  A    between atoms: _141  and  _142
REMARK   63  A    between atoms: _142  and  _143
REMARK   64  A    between atoms: _145  and  _147
REMARK   65  A    between atoms: _147  and  _148
REMARK   66  A    between atoms: _147  and  _150
REMARK   67  A    between atoms: _150  and  _151
REMARK   68  A    between atoms: _154  and  _156
REMARK   69  A    between atoms: _156  and  _157
REMARK   70  A    between atoms: _156  and  _159
REMARK   71  A    between atoms: _159  and  _160
REMARK   72  A    between atoms: _162  and  _164
REMARK   73  A    between atoms: _164  and  _165
REMARK   74  A    between atoms: _164  and  _167
REMARK   75  A    between atoms: _167  and  _168
REMARK   76  A    between atoms: _168  and  _169
REMARK   77  A    between atoms: _172  and  _174
REMARK   78  A    between atoms: _174  and  _175
REMARK   79  A    between atoms: _174  and  _177
REMARK   80  A    between atoms: _177  and  _178
REMARK   81  A    between atoms: _181  and  _183
REMARK   82  A    between atoms: _183  and  _184
REMARK   83  A    between atoms: _183  and  _186
REMARK   84  A    between atoms: _186  and  _187
REMARK   85  A    between atoms: _190  and  _192
REMARK   86  A    between atoms: _192  and  _193
REMARK   87  A    between atoms: _192  and  _195
REMARK   88  A    between atoms: _195  and  _196
REMARK   89  A    between atoms: _199  and  _201
REMARK   90  A    between atoms: _201  and  _202
REMARK   91  A    between atoms: _201  and  _204
REMARK   92  A    between atoms: _204  and  _205
REMARK   93  A    between atoms: _208  and  _210
REMARK   94  A    between atoms: _210  and  _211
REMARK   95  A    between atoms: _213  and  _215
REMARK   96  A    between atoms: _215  and  _216
REMARK   97  A    between atoms: _215  and  _218
REMARK   98  A    between atoms: _218  and  _219
REMARK   99  A    between atoms: _224  and  _226
REMARK  100  A    between atoms: _226  and  _227
REMARK  101  A    between atoms: _226  and  _229
REMARK  102  A    between atoms: _232  and  _234
REMARK  103  A    between atoms: _234  and  _235
REMARK  104  A    between atoms: _234  and  _237
REMARK  105  A    between atoms: _240  and  _242
REMARK  106  A    between atoms: _242  and  _243
REMARK  107  A    between atoms: _242  and  _245
REMARK  108  A    between atoms: _245  and  _246
REMARK  109  A    between atoms: _251  and  _253
REMARK  110  A    between atoms: _253  and  _254
REMARK  111  A    between atoms: _253  and  _256
REMARK  112  A    between atoms: _256  and  _257
REMARK  113  A    between atoms: _260  and  _262
REMARK  114  A    between atoms: _262  and  _263
REMARK  115  A    between atoms: _262  and  _265
REMARK  116  A    between atoms: _268  and  _270
REMARK  117  A    between atoms: _270  and  _271
REMARK  118  A    between atoms: _270  and  _273
REMARK  119  A    between atoms: _273  and  _274
REMARK  120  A    between atoms: _277  and  _279
REMARK  121  A    between atoms: _279  and  _280
REMARK  122  A    between atoms: _279  and  _282
REMARK  123  A    between atoms: _285  and  _287
REMARK  124  A    between atoms: _287  and  _288
REMARK  125  A    between atoms: _287  and  _290
REMARK  126  A    between atoms: _290  and  _291
REMARK  127  A    between atoms: _291  and  _292
REMARK  128  A    between atoms: _295  and  _297
REMARK  129  A    between atoms: _297  and  _298
REMARK  130  A    between atoms: _297  and  _300
REMARK  131  A    between atoms: _300  and  _301
REMARK  132  A    between atoms: _307  and  _309
REMARK  133  A    between atoms: _309  and  _310
REMARK  134  A    between atoms: _309  and  _312
REMARK  135  A    between atoms: _314  and  _316
REMARK  136  A    between atoms: _316  and  _317
REMARK  137  A    between atoms: _316  and  _319
REMARK  138  A    between atoms: _319  and  _320
REMARK  139  A    between atoms: _320  and  _321
REMARK  140  A    between atoms: _321  and  _322
REMARK  141  A    between atoms: _322  and  _323
REMARK  142  A    between atoms: _327  and  _329
REMARK  143  A    between atoms: _329  and  _330
REMARK  144  A    between atoms: _329  and  _332
REMARK  145  A    between atoms: _332  and  _333
REMARK  146  A    between atoms: _339  and  _341
REMARK  147  A    between atoms: _341  and  _342
REMARK  148  A    between atoms: _344  and  _346
REMARK  149  A    between atoms: _346  and  _347
REMARK  150  A    between atoms: _346  and  _349
REMARK  151  A    between atoms: _349  and  _350
REMARK  152  A    between atoms: _355  and  _357
REMARK  153  A    between atoms: _357  and  _358
REMARK  154  A    between atoms: _360  and  _362
REMARK  155  A    between atoms: _362  and  _363
REMARK  156  A    between atoms: _362  and  _365
REMARK  157  A    between atoms: _365  and  _366
REMARK  158  A    between atoms: _366  and  _367
REMARK  159  A    between atoms: _369  and  _371
REMARK  160  A    between atoms: _371  and  _372
REMARK  161  A    between atoms: _371  and  _374
REMARK  162  A    between atoms: _374  and  _375
REMARK  163  A    between atoms: _381  and  _383
REMARK  164  A    between atoms: _383  and  _384
REMARK  165  A    between atoms: _383  and  _386
REMARK  166  A    between atoms: _386  and  _387
REMARK  167  A    between atoms: _390  and  _392
REMARK  168  A    between atoms: _392  and  _393
REMARK  169  A    between atoms: _392  and  _395
REMARK  170  A    between atoms: _397  and  _399
REMARK  171  A    between atoms: _399  and  _400
REMARK  172  A    between atoms: _399  and  _402
REMARK  173  A    between atoms: _402  and  _403
REMARK  174  A    between atoms: _406  and  _408
REMARK  175  A    between atoms: _408  and  _409
REMARK  176  A    between atoms: _408  and  _411
REMARK  177  A    between atoms: _411  and  _412
REMARK  178  A    between atoms: _417  and  _419
REMARK  179  A    between atoms: _419  and  _420
REMARK  180  A    between atoms: _419  and  _422
REMARK  181  A    between atoms: _422  and  _423
REMARK  182  A    between atoms: _423  and  _424
REMARK  183  A    between atoms: _424  and  _425
REMARK  184  A    between atoms: _434  and  _436
REMARK  185  A    between atoms: _436  and  _437
REMARK  186  A    between atoms: _436  and  _439
REMARK  187  A    between atoms: _439  and  _440
REMARK  188  A    between atoms: _443  and  _445
REMARK  189  A    between atoms: _445  and  _446
REMARK  190  A    between atoms: _445  and  _448
REMARK  191  A    between atoms: _448  and  _449
REMARK  192  A    between atoms: _452  and  _454
REMARK  193  A    between atoms: _454  and  _455
REMARK  194  A    between atoms: _454  and  _457
REMARK  195  A    between atoms: _457  and  _458
REMARK  196  A    between atoms: _458  and  _459
REMARK  197  A    between atoms: _459  and  _460
REMARK  198  A    between atoms: _469  and  _471
REMARK  199  A    between atoms: _471  and  _472
REMARK  200  A    between atoms: _471  and  _474
REMARK  201  A    between atoms: _474  and  _475
REMARK  202  A    between atoms: _480  and  _482
REMARK  203  A    between atoms: _482  and  _483
REMARK  204  A    between atoms: _482  and  _485
REMARK  205  A    between atoms: _485  and  _486
REMARK  206  A    between atoms: _489  and  _491
REMARK  207  A    between atoms: _491  and  _492
REMARK  208  A    between atoms: _491  and  _494
REMARK  209  A    between atoms: _494  and  _495
REMARK  210  A    between atoms: _498  and  _500
REMARK  211  A    between atoms: _500  and  _501
REMARK  212  A    between atoms: _500  and  _503
REMARK  213  A    between atoms: _503  and  _504
REMARK  214  A    between atoms: _507  and  _509
REMARK  215  A    between atoms: _509  and  _510
REMARK  216  A    between atoms: _509  and  _512
REMARK  217  A    between atoms: _512  and  _513
REMARK  218  A    between atoms: _515  and  _517
REMARK  219  A    between atoms: _517  and  _518
REMARK  220  A    between atoms: _517  and  _520
REMARK  221  A    between atoms: _520  and  _521
REMARK  222  A    between atoms: _521  and  _522
REMARK  223  A    between atoms: _522  and  _523
REMARK  224  A    between atoms: _523  and  _524
REMARK  225  A    between atoms: _528  and  _530
REMARK  226  A    between atoms: _530  and  _531
REMARK  227  A    between atoms: _530  and  _533
REMARK  228  A    between atoms: _533  and  _534
REMARK  229  A    between atoms: _537  and  _539
REMARK  230  A    between atoms: _539  and  _540
REMARK  231  A    between atoms: _539  and  _542
REMARK  232  A    between atoms: _544  and  _546
REMARK  233  A    between atoms: _546  and  _547
REMARK  234  A    between atoms: _546  and  _549
REMARK  235  A    between atoms: _549  and  _550
REMARK  236  A    between atoms: _553  and  _555
REMARK  237  A    between atoms: _555  and  _556
REMARK  238  A    between atoms: _555  and  _558
REMARK  239  A    between atoms: _558  and  _559
REMARK  240  A    between atoms: _565  and  _567
REMARK  241  A    between atoms: _567  and  _568
REMARK  242  A    between atoms: _570  and  _572
REMARK  243  A    between atoms: _572  and  _573
REMARK  244  A    between atoms: _572  and  _575
REMARK  245  A    between atoms: _575  and  _576
REMARK  246  A    between atoms: _579  and  _581
REMARK  247  A    between atoms: _581  and  _582
REMARK  248  A    between atoms: _585  and  _587
REMARK  249  A    between atoms: _587  and  _588
REMARK  250  A    between atoms: _587  and  _590
REMARK  251  A    between atoms: _590  and  _591
REMARK  252  A    between atoms: _591  and  _592
REMARK  253  A    between atoms: _592  and  _593
REMARK                            x       y       z     vdW  Elec       q    Type
REMARK                         _______ _______ _______ _____ _____    ______ ____
ROOT
ATOM      1  O   HOH     1     -32.067  -4.872  -2.515  0.00  0.00    +0.000 OA
ENDROOT
TORSDOF 0
REMARK  Name = ../refined-set-2016/4asd/4asd_pocket.pdb
REMARK  253 active torsions:
REMARK  status: ('A' for Active; 'I' for Inactive)
REMARK    1  A    between atoms: _1  and  _3
REMARK    2  A    between atoms: _3  and  _4
REMARK    3  A    between atoms: _3  and  _6
REMARK    4  A    between atoms: _6  and  _7
REMARK    5  A    between atoms: _10  and  _12
REMARK    6  A    between atoms: _12  and  _13
REMARK    7  A    between atoms: _12  and  _15
REMARK    8  A    between atoms: _15  and  _16
REMARK    9  A    between atoms: _19  and  _21
REMARK   10  A    between atoms: _21  and  _22
REMARK   11  A    between atoms: _21  and  _24
REMARK   12  A    between atoms: _24  and  _25
REMARK   13  A    between atoms: _25  and  _26
REMARK   14  A    between atoms: _26  and  _27
REMARK   15  A    between atoms: _27  and  _28
REMARK   16  A    between atoms: _33  and  _34
REMARK   17  A    between atoms: _39  and  _41
REMARK   18  A    between atoms: _41  and  _42
REMARK   19  A    between atoms: _41  and  _44
REMARK   20  A    between atoms: _44  and  _45
REMARK   21  A    between atoms: _48  and  _50
REMARK   22  A    between atoms: _50  and  _51
REMARK   23  A    between atoms: _53  and  _55
REMARK   24  A    between atoms: _55  and  _56
REMARK   25  A    between atoms: _55  and  _58
REMARK   26  A    between atoms: _58  and  _59
REMARK   27  A    between atoms: _59  and  _60
REMARK   28  A    between atoms: _65  and  _67
REMARK   29  A    between atoms: _67  and  _68
REMARK   30  A    between atoms: _67  and  _70
REMARK   31  A    between atoms: _73  and  _75
REMARK   32  A    between atoms: _75  and  _76
REMARK   33  A    between atoms: _75  and  _78
REMARK   34  A    between atoms: _78  and  _79
REMARK   35  A    between atoms: _82  and  _84
REMARK   36  A    between atoms: _84  and  _85
REMARK   37  A    between atoms: _84  and  _87
REMARK   38  A    between atoms: _87  and  _88
REMARK   39  A    between atoms: _88  and  _89
REMARK   40  A    between atoms: _92  and  _94
REMARK   41  A    between atoms: _94  and  _95
REMARK   42  A    between atoms: _94  and  _97
REMARK   43  A    between atoms: _97  and  _98
REMARK   44  A    between atoms: _101  and  _103
REMARK   45  A    between atoms: _103  and  _104
REMARK   46  A    between atoms: _103  and  _106
REMARK   47  A    between atoms: _109  and  _111
REMARK   48  A    between atoms: _111  and  _112
REMARK   49  A    between atoms: _115  and  _117
REMARK   50  A    between atoms: _117  and  _118
REMARK   51  A    between atoms: _117  and  _120
REMARK   52  A    between atoms: _123  and  _125
REMARK   53  A    between atoms: _125  and  _126
REMARK   54  A    between atoms: _125  and  _128
REMARK   55  A    between atoms: _128  and  _129
REMARK   56  A    between atoms: _129  and  _130
REMARK   57  A    between atoms: _130  and  _131
REMARK   58  A    between atoms: _131  and  _132
REMARK   59  A    between atoms: _136  and  _138
REMARK   60  A    between atoms: _138  and  _139
REMARK   61  A    between atoms: _138  and  _141
REMARK   62  A    between atoms: _141  and  _142
REMARK   63  A    between atoms: _142  and  _143
REMARK   64  A    between atoms: _145  and  _147
REMARK   65  A    between atoms: _147  and  _148
REMARK   66  A    between atoms: _147  and  _150
REMARK   67  A    between atoms: _150  and  _151
REMARK   68  A    between atoms: _154  and  _156
REMARK   69  A    between atoms: _156  and  _157
REMARK   70  A    between atoms: _156  and  _159
REMARK   71  A    between atoms: _159  and  _160
REMARK   72  A    between atoms: _162  and  _164
REMARK   73  A    between atoms: _164  and  _165
REMARK   74  A    between atoms: _164  and  _167
REMARK   75  A    between atoms: _167  and  _168
REMARK   76  A    between atoms: _168  and  _169
REMARK   77  A    between atoms: _172  and  _174
REMARK   78  A    between atoms: _174  and  _175
REMARK   79  A    between atoms: _174  and  _177
REMARK   80  A    between atoms: _177  and  _178
REMARK   81  A    between atoms: _181  and  _183
REMARK   82  A    between atoms: _183  and  _184
REMARK   83  A    between atoms: _183  and  _186
REMARK   84  A    between atoms: _186  and  _187
REMARK   85  A    between atoms: _190  and  _192
REMARK   86  A    between atoms: _192  and  _193
REMARK   87  A    between atoms: _192  and  _195
REMARK   88  A    between atoms: _195  and  _196
REMARK   89  A    between atoms: _199  and  _201
REMARK   90  A    between atoms: _201  and  _202
REMARK   91  A    between atoms: _201  and  _204
REMARK   92  A    between atoms: _204  and  _205
REMARK   93  A    between atoms: _208  and  _210
REMARK   94  A    between atoms: _210  and  _211
REMARK   95  A    between atoms: _213  and  _215
REMARK   96  A    between atoms: _215  and  _216
REMARK   97  A    between atoms: _215  and  _218
REMARK   98  A    between atoms: _218  and  _219
REMARK   99  A    between atoms: _224  and  _226
REMARK  100  A    between atoms: _226  and  _227
REMARK  101  A    between atoms: _226  and  _229
REMARK  102  A    between atoms: _232  and  _234
REMARK  103  A    between atoms: _234  and  _235
REMARK  104  A    between atoms: _234  and  _237
REMARK  105  A    between atoms: _240  and  _242
REMARK  106  A    between atoms: _242  and  _243
REMARK  107  A    between atoms: _242  and  _245
REMARK  108  A    between atoms: _245  and  _246
REMARK  109  A    between atoms: _251  and  _253
REMARK  110  A    between atoms: _253  and  _254
REMARK  111  A    between atoms: _253  and  _256
REMARK  112  A    between atoms: _256  and  _257
REMARK  113  A    between atoms: _260  and  _262
REMARK  114  A    between atoms: _262  and  _263
REMARK  115  A    between atoms: _262  and  _265
REMARK  116  A    between atoms: _268  and  _270
REMARK  117  A    between atoms: _270  and  _271
REMARK  118  A    between atoms: _270  and  _273
REMARK  119  A    between atoms: _273  and  _274
REMARK  120  A    between atoms: _277  and  _279
REMARK  121  A    between atoms: _279  and  _280
REMARK  122  A    between atoms: _279  and  _282
REMARK  123  A    between atoms: _285  and  _287
REMARK  124  A    between atoms: _287  and  _288
REMARK  125  A    between atoms: _287  and  _290
REMARK  126  A    between atoms: _290  and  _291
REMARK  127  A    between atoms: _291  and  _292
REMARK  128  A    between atoms: _295  and  _297
REMARK  129  A    between atoms: _297  and  _298
REMARK  130  A    between atoms: _297  and  _300
REMARK  131  A    between atoms: _300  and  _301
REMARK  132  A    between atoms: _307  and  _309
REMARK  133  A    between atoms: _309  and  _310
REMARK  134  A    between atoms: _309  and  _312
REMARK  135  A    between atoms: _314  and  _316
REMARK  136  A    between atoms: _316  and  _317
REMARK  137  A    between atoms: _316  and  _319
REMARK  138  A    between atoms: _319  and  _320
REMARK  139  A    between atoms: _320  and  _321
REMARK  140  A    between atoms: _321  and  _322
REMARK  141  A    between atoms: _322  and  _323
REMARK  142  A    between atoms: _327  and  _329
REMARK  143  A    between atoms: _329  and  _330
REMARK  144  A    between atoms: _329  and  _332
REMARK  145  A    between atoms: _332  and  _333
REMARK  146  A    between atoms: _339  and  _341
REMARK  147  A    between atoms: _341  and  _342
REMARK  148  A    between atoms: _344  and  _346
REMARK  149  A    between atoms: _346  and  _347
REMARK  150  A    between atoms: _346  and  _349
REMARK  151  A    between atoms: _349  and  _350
REMARK  152  A    between atoms: _355  and  _357
REMARK  153  A    between atoms: _357  and  _358
REMARK  154  A    between atoms: _360  and  _362
REMARK  155  A    between atoms: _362  and  _363
REMARK  156  A    between atoms: _362  and  _365
REMARK  157  A    between atoms: _365  and  _366
REMARK  158  A    between atoms: _366  and  _367
REMARK  159  A    between atoms: _369  and  _371
REMARK  160  A    between atoms: _371  and  _372
REMARK  161  A    between atoms: _371  and  _374
REMARK  162  A    between atoms: _374  and  _375
REMARK  163  A    between atoms: _381  and  _383
REMARK  164  A    between atoms: _383  and  _384
REMARK  165  A    between atoms: _383  and  _386
REMARK  166  A    between atoms: _386  and  _387
REMARK  167  A    between atoms: _390  and  _392
REMARK  168  A    between atoms: _392  and  _393
REMARK  169  A    between atoms: _392  and  _395
REMARK  170  A    between atoms: _397  and  _399
REMARK  171  A    between atoms: _399  and  _400
REMARK  172  A    between atoms: _399  and  _402
REMARK  173  A    between atoms: _402  and  _403
REMARK  174  A    between atoms: _406  and  _408
REMARK  175  A    between atoms: _408  and  _409
REMARK  176  A    between atoms: _408  and  _411
REMARK  177  A    between atoms: _411  and  _412
REMARK  178  A    between atoms: _417  and  _419
REMARK  179  A    between atoms: _419  and  _420
REMARK  180  A    between atoms: _419  and  _422
REMARK  181  A    between atoms: _422  and  _423
REMARK  182  A    between atoms: _423  and  _424
REMARK  183  A    between atoms: _424  and  _425
REMARK  184  A    between atoms: _434  and  _436
REMARK  185  A    between atoms: _436  and  _437
REMARK  186  A    between atoms: _436  and  _439
REMARK  187  A    between atoms: _439  and  _440
REMARK  188  A    between atoms: _443  and  _445
REMARK  189  A    between atoms: _445  and  _446
REMARK  190  A    between atoms: _445  and  _448
REMARK  191  A    between atoms: _448  and  _449
REMARK  192  A    between atoms: _452  and  _454
REMARK  193  A    between atoms: _454  and  _455
REMARK  194  A    between atoms: _454  and  _457
REMARK  195  A    between atoms: _457  and  _458
REMARK  196  A    between atoms: _458  and  _459
REMARK  197  A    between atoms: _459  and  _460
REMARK  198  A    between atoms: _469  and  _471
REMARK  199  A    between atoms: _471  and  _472
REMARK  200  A    between atoms: _471  and  _474
REMARK  201  A    between atoms: _474  and  _475
REMARK  202  A    between atoms: _480  and  _482
REMARK  203  A    between atoms: _482  and  _483
REMARK  204  A    between atoms: _482  and  _485
REMARK  205  A    between atoms: _485  and  _486
REMARK  206  A    between atoms: _489  and  _491
REMARK  207  A    between atoms: _491  and  _492
REMARK  208  A    between atoms: _491  and  _494
REMARK  209  A    between atoms: _494  and  _495
REMARK  210  A    between atoms: _498  and  _500
REMARK  211  A    between atoms: _500  and  _501
REMARK  212  A    between atoms: _500  and  _503
REMARK  213  A    between atoms: _503  and  _504
REMARK  214  A    between atoms: _507  and  _509
REMARK  215  A    between atoms: _509  and  _510
REMARK  216  A    between atoms: _509  and  _512
REMARK  217  A    between atoms: _512  and  _513
REMARK  218  A    between atoms: _515  and  _517
REMARK  219  A    between atoms: _517  and  _518
REMARK  220  A    between atoms: _517  and  _520
REMARK  221  A    between atoms: _520  and  _521
REMARK  222  A    between atoms: _521  and  _522
REMARK  223  A    between atoms: _522  and  _523
REMARK  224  A    between atoms: _523  and  _524
REMARK  225  A    between atoms: _528  and  _530
REMARK  226  A    between atoms: _530  and  _531
REMARK  227  A    between atoms: _530  and  _533
REMARK  228  A    between atoms: _533  and  _534
REMARK  229  A    between atoms: _537  and  _539
REMARK  230  A    between atoms: _539  and  _540
REMARK  231  A    between atoms: _539  and  _542
REMARK  232  A    between atoms: _544  and  _546
REMARK  233  A    between atoms: _546  and  _547
REMARK  234  A    between atoms: _546  and  _549
REMARK  235  A    between atoms: _549  and  _550
REMARK  236  A    between atoms: _553  and  _555
REMARK  237  A    between atoms: _555  and  _556
REMARK  238  A    between atoms: _555  and  _558
REMARK  239  A    between atoms: _558  and  _559
REMARK  240  A    between atoms: _565  and  _567
REMARK  241  A    between atoms: _567  and  _568
REMARK  242  A    between atoms: _570  and  _572
REMARK  243  A    between atoms: _572  and  _573
REMARK  244  A    between atoms: _572  and  _575
REMARK  245  A    between atoms: _575  and  _576
REMARK  246  A    between atoms: _579  and  _581
REMARK  247  A    between atoms: _581  and  _582
REMARK  248  A    between atoms: _585  and  _587
REMARK  249  A    between atoms: _587  and  _588
REMARK  250  A    between atoms: _587  and  _590
REMARK  251  A    between atoms: _590  and  _591
REMARK  252  A    between atoms: _591  and  _592
REMARK  253  A    between atoms: _592  and  _593
REMARK                            x       y       z     vdW  Elec       q    Type
REMARK                         _______ _______ _______ _____ _____    ______ ____
ROOT
ATOM      1  O   HOH     1     -28.740  -8.071  -2.591  0.00  0.00    +0.000 OA
ENDROOT
TORSDOF 0
REMARK  Name = ../refined-set-2016/4asd/4asd_pocket.pdb
REMARK  253 active torsions:
REMARK  status: ('A' for Active; 'I' for Inactive)
REMARK    1  A    between atoms: _1  and  _3
REMARK    2  A    between atoms: _3  and  _4
REMARK    3  A    between atoms: _3  and  _6
REMARK    4  A    between atoms: _6  and  _7
REMARK    5  A    between atoms: _10  and  _12
REMARK    6  A    between atoms: _12  and  _13
REMARK    7  A    between atoms: _12  and  _15
REMARK    8  A    between atoms: _15  and  _16
REMARK    9  A    between atoms: _19  and  _21
REMARK   10  A    between atoms: _21  and  _22
REMARK   11  A    between atoms: _21  and  _24
REMARK   12  A    between atoms: _24  and  _25
REMARK   13  A    between atoms: _25  and  _26
REMARK   14  A    between atoms: _26  and  _27
REMARK   15  A    between atoms: _27  and  _28
REMARK   16  A    between atoms: _33  and  _34
REMARK   17  A    between atoms: _39  and  _41
REMARK   18  A    between atoms: _41  and  _42
REMARK   19  A    between atoms: _41  and  _44
REMARK   20  A    between atoms: _44  and  _45
REMARK   21  A    between atoms: _48  and  _50
REMARK   22  A    between atoms: _50  and  _51
REMARK   23  A    between atoms: _53  and  _55
REMARK   24  A    between atoms: _55  and  _56
REMARK   25  A    between atoms: _55  and  _58
REMARK   26  A    between atoms: _58  and  _59
REMARK   27  A    between atoms: _59  and  _60
REMARK   28  A    between atoms: _65  and  _67
REMARK   29  A    between atoms: _67  and  _68
REMARK   30  A    between atoms: _67  and  _70
REMARK   31  A    between atoms: _73  and  _75
REMARK   32  A    between atoms: _75  and  _76
REMARK   33  A    between atoms: _75  and  _78
REMARK   34  A    between atoms: _78  and  _79
REMARK   35  A    between atoms: _82  and  _84
REMARK   36  A    between atoms: _84  and  _85
REMARK   37  A    between atoms: _84  and  _87
REMARK   38  A    between atoms: _87  and  _88
REMARK   39  A    between atoms: _88  and  _89
REMARK   40  A    between atoms: _92  and  _94
REMARK   41  A    between atoms: _94  and  _95
REMARK   42  A    between atoms: _94  and  _97
REMARK   43  A    between atoms: _97  and  _98
REMARK   44  A    between atoms: _101  and  _103
REMARK   45  A    between atoms: _103  and  _104
REMARK   46  A    between atoms: _103  and  _106
REMARK   47  A    between atoms: _109  and  _111
REMARK   48  A    between atoms: _111  and  _112
REMARK   49  A    between atoms: _115  and  _117
REMARK   50  A    between atoms: _117  and  _118
REMARK   51  A    between atoms: _117  and  _120
REMARK   52  A    between atoms: _123  and  _125
REMARK   53  A    between atoms: _125  and  _126
REMARK   54  A    between atoms: _125  and  _128
REMARK   55  A    between atoms: _128  and  _129
REMARK   56  A    between atoms: _129  and  _130
REMARK   57  A    between atoms: _130  and  _131
REMARK   58  A    between atoms: _131  and  _132
REMARK   59  A    between atoms: _136  and  _138
REMARK   60  A    between atoms: _138  and  _139
REMARK   61  A    between atoms: _138  and  _141
REMARK   62  A    between atoms: _141  and  _142
REMARK   63  A    between atoms: _142  and  _143
REMARK   64  A    between atoms: _145  and  _147
REMARK   65  A    between atoms: _147  and  _148
REMARK   66  A    between atoms: _147  and  _150
REMARK   67  A    between atoms: _150  and  _151
REMARK   68  A    between atoms: _154  and  _156
REMARK   69  A    between atoms: _156  and  _157
REMARK   70  A    between atoms: _156  and  _159
REMARK   71  A    between atoms: _159  and  _160
REMARK   72  A    between atoms: _162  and  _164
REMARK   73  A    between atoms: _164  and  _165
REMARK   74  A    between atoms: _164  and  _167
REMARK   75  A    between atoms: _167  and  _168
REMARK   76  A    between atoms: _168  and  _169
REMARK   77  A    between atoms: _172  and  _174
REMARK   78  A    between atoms: _174  and  _175
REMARK   79  A    between atoms: _174  and  _177
REMARK   80  A    between atoms: _177  and  _178
REMARK   81  A    between atoms: _181  and  _183
REMARK   82  A    between atoms: _183  and  _184
REMARK   83  A    between atoms: _183  and  _186
REMARK   84  A    between atoms: _186  and  _187
REMARK   85  A    between atoms: _190  and  _192
REMARK   86  A    between atoms: _192  and  _193
REMARK   87  A    between atoms: _192  and  _195
REMARK   88  A    between atoms: _195  and  _196
REMARK   89  A    between atoms: _199  and  _201
REMARK   90  A    between atoms: _201  and  _202
REMARK   91  A    between atoms: _201  and  _204
REMARK   92  A    between atoms: _204  and  _205
REMARK   93  A    between atoms: _208  and  _210
REMARK   94  A    between atoms: _210  and  _211
REMARK   95  A    between atoms: _213  and  _215
REMARK   96  A    between atoms: _215  and  _216
REMARK   97  A    between atoms: _215  and  _218
REMARK   98  A    between atoms: _218  and  _219
REMARK   99  A    between atoms: _224  and  _226
REMARK  100  A    between atoms: _226  and  _227
REMARK  101  A    between atoms: _226  and  _229
REMARK  102  A    between atoms: _232  and  _234
REMARK  103  A    between atoms: _234  and  _235
REMARK  104  A    between atoms: _234  and  _237
REMARK  105  A    between atoms: _240  and  _242
REMARK  106  A    between atoms: _242  and  _243
REMARK  107  A    between atoms: _242  and  _245
REMARK  108  A    between atoms: _245  and  _246
REMARK  109  A    between atoms: _251  and  _253
REMARK  110  A    between atoms: _253  and  _254
REMARK  111  A    between atoms: _253  and  _256
REMARK  112  A    between atoms: _256  and  _257
REMARK  113  A    between atoms: _260  and  _262
REMARK  114  A    between atoms: _262  and  _263
REMARK  115  A    between atoms: _262  and  _265
REMARK  116  A    between atoms: _268  and  _270
REMARK  117  A    between atoms: _270  and  _271
REMARK  118  A    between atoms: _270  and  _273
REMARK  119  A    between atoms: _273  and  _274
REMARK  120  A    between atoms: _277  and  _279
REMARK  121  A    between atoms: _279  and  _280
REMARK  122  A    between atoms: _279  and  _282
REMARK  123  A    between atoms: _285  and  _287
REMARK  124  A    between atoms: _287  and  _288
REMARK  125  A    between atoms: _287  and  _290
REMARK  126  A    between atoms: _290  and  _291
REMARK  127  A    between atoms: _291  and  _292
REMARK  128  A    between atoms: _295  and  _297
REMARK  129  A    between atoms: _297  and  _298
REMARK  130  A    between atoms: _297  and  _300
REMARK  131  A    between atoms: _300  and  _301
REMARK  132  A    between atoms: _307  and  _309
REMARK  133  A    between atoms: _309  and  _310
REMARK  134  A    between atoms: _309  and  _312
REMARK  135  A    between atoms: _314  and  _316
REMARK  136  A    between atoms: _316  and  _317
REMARK  137  A    between atoms: _316  and  _319
REMARK  138  A    between atoms: _319  and  _320
REMARK  139  A    between atoms: _320  and  _321
REMARK  140  A    between atoms: _321  and  _322
REMARK  141  A    between atoms: _322  and  _323
REMARK  142  A    between atoms: _327  and  _329
REMARK  143  A    between atoms: _329  and  _330
REMARK  144  A    between atoms: _329  and  _332
REMARK  145  A    between atoms: _332  and  _333
REMARK  146  A    between atoms: _339  and  _341
REMARK  147  A    between atoms: _341  and  _342
REMARK  148  A    between atoms: _344  and  _346
REMARK  149  A    between atoms: _346  and  _347
REMARK  150  A    between atoms: _346  and  _349
REMARK  151  A    between atoms: _349  and  _350
REMARK  152  A    between atoms: _355  and  _357
REMARK  153  A    between atoms: _357  and  _358
REMARK  154  A    between atoms: _360  and  _362
REMARK  155  A    between atoms: _362  and  _363
REMARK  156  A    between atoms: _362  and  _365
REMARK  157  A    between atoms: _365  and  _366
REMARK  158  A    between atoms: _366  and  _367
REMARK  159  A    between atoms: _369  and  _371
REMARK  160  A    between atoms: _371  and  _372
REMARK  161  A    between atoms: _371  and  _374
REMARK  162  A    between atoms: _374  and  _375
REMARK  163  A    between atoms: _381  and  _383
REMARK  164  A    between atoms: _383  and  _384
REMARK  165  A    between atoms: _383  and  _386
REMARK  166  A    between atoms: _386  and  _387
REMARK  167  A    between atoms: _390  and  _392
REMARK  168  A    between atoms: _392  and  _393
REMARK  169  A    between atoms: _392  and  _395
REMARK  170  A    between atoms: _397  and  _399
REMARK  171  A    between atoms: _399  and  _400
REMARK  172  A    between atoms: _399  and  _402
REMARK  173  A    between atoms: _402  and  _403
REMARK  174  A    between atoms: _406  and  _408
REMARK  175  A    between atoms: _408  and  _409
REMARK  176  A    between atoms: _408  and  _411
REMARK  177  A    between atoms: _411  and  _412
REMARK  178  A    between atoms: _417  and  _419
REMARK  179  A    between atoms: _419  and  _420
REMARK  180  A    between atoms: _419  and  _422
REMARK  181  A    between atoms: _422  and  _423
REMARK  182  A    between atoms: _423  and  _424
REMARK  183  A    between atoms: _424  and  _425
REMARK  184  A    between atoms: _434  and  _436
REMARK  185  A    between atoms: _436  and  _437
REMARK  186  A    between atoms: _436  and  _439
REMARK  187  A    between atoms: _439  and  _440
REMARK  188  A    between atoms: _443  and  _445
REMARK  189  A    between atoms: _445  and  _446
REMARK  190  A    between atoms: _445  and  _448
REMARK  191  A    between atoms: _448  and  _449
REMARK  192  A    between atoms: _452  and  _454
REMARK  193  A    between atoms: _454  and  _455
REMARK  194  A    between atoms: _454  and  _457
REMARK  195  A    between atoms: _457  and  _458
REMARK  196  A    between atoms: _458  and  _459
REMARK  197  A    between atoms: _459  and  _460
REMARK  198  A    between atoms: _469  and  _471
REMARK  199  A    between atoms: _471  and  _472
REMARK  200  A    between atoms: _471  and  _474
REMARK  201  A    between atoms: _474  and  _475
REMARK  202  A    between atoms: _480  and  _482
REMARK  203  A    between atoms: _482  and  _483
REMARK  204  A    between atoms: _482  and  _485
REMARK  205  A    between atoms: _485  and  _486
REMARK  206  A    between atoms: _489  and  _491
REMARK  207  A    between atoms: _491  and  _492
REMARK  208  A    between atoms: _491  and  _494
REMARK  209  A    between atoms: _494  and  _495
REMARK  210  A    between atoms: _498  and  _500
REMARK  211  A    between atoms: _500  and  _501
REMARK  212  A    between atoms: _500  and  _503
REMARK  213  A    between atoms: _503  and  _504
REMARK  214  A    between atoms: _507  and  _509
REMARK  215  A    between atoms: _509  and  _510
REMARK  216  A    between atoms: _509  and  _512
REMARK  217  A    between atoms: _512  and  _513
REMARK  218  A    between atoms: _515  and  _517
REMARK  219  A    between atoms: _517  and  _518
REMARK  220  A    between atoms: _517  and  _520
REMARK  221  A    between atoms: _520  and  _521
REMARK  222  A    between atoms: _521  and  _522
REMARK  223  A    between atoms: _522  and  _523
REMARK  224  A    between atoms: _523  and  _524
REMARK  225  A    between atoms: _528  and  _530
REMARK  226  A    between atoms: _530  and  _531
REMARK  227  A    between atoms: _530  and  _533
REMARK  228  A    between atoms: _533  and  _534
REMARK  229  A    between atoms: _537  and  _539
REMARK  230  A    between atoms: _539  and  _540
REMARK  231  A    between atoms: _539  and  _542
REMARK  232  A    between atoms: _544  and  _546
REMARK  233  A    between atoms: _546  and  _547
REMARK  234  A    between atoms: _546  and  _549
REMARK  235  A    between atoms: _549  and  _550
REMARK  236  A    between atoms: _553  and  _555
REMARK  237  A    between atoms: _555  and  _556
REMARK  238  A    between atoms: _555  and  _558
REMARK  239  A    between atoms: _558  and  _559
REMARK  240  A    between atoms: _565  and  _567
REMARK  241  A    between atoms: _567  and  _568
REMARK  242  A    between atoms: _570  and  _572
REMARK  243  A    between atoms: _572  and  _573
REMARK  244  A    between atoms: _572  and  _575
REMARK  245  A    between atoms: _575  and  _576
REMARK  246  A    between atoms: _579  and  _581
REMARK  247  A    between atoms: _581  and  _582
REMARK  248  A    between atoms: _585  and  _587
REMARK  249  A    between atoms: _587  and  _588
REMARK  250  A    between atoms: _587  and  _590
REMARK  251  A    between atoms: _590  and  _591
REMARK  252  A    between atoms: _591  and  _592
REMARK  253  A    between atoms: _592  and  _593
REMARK                            x       y       z     vdW  Elec       q    Type
REMARK                         _______ _______ _______ _____ _____    ______ ____
ROOT
ATOM      1  O   HOH     1     -25.546  -7.907  -3.678  0.00  0.00    +0.000 OA
ENDROOT
TORSDOF 0
REMARK  Name = ../refined-set-2016/4asd/4asd_pocket.pdb
REMARK  253 active torsions:
REMARK  status: ('A' for Active; 'I' for Inactive)
REMARK    1  A    between atoms: _1  and  _3
REMARK    2  A    between atoms: _3  and  _4
REMARK    3  A    between atoms: _3  and  _6
REMARK    4  A    between atoms: _6  and  _7
REMARK    5  A    between atoms: _10  and  _12
REMARK    6  A    between atoms: _12  and  _13
REMARK    7  A    between atoms: _12  and  _15
REMARK    8  A    between atoms: _15  and  _16
REMARK    9  A    between atoms: _19  and  _21
REMARK   10  A    between atoms: _21  and  _22
REMARK   11  A    between atoms: _21  and  _24
REMARK   12  A    between atoms: _24  and  _25
REMARK   13  A    between atoms: _25  and  _26
REMARK   14  A    between atoms: _26  and  _27
REMARK   15  A    between atoms: _27  and  _28
REMARK   16  A    between atoms: _33  and  _34
REMARK   17  A    between atoms: _39  and  _41
REMARK   18  A    between atoms: _41  and  _42
REMARK   19  A    between atoms: _41  and  _44
REMARK   20  A    between atoms: _44  and  _45
REMARK   21  A    between atoms: _48  and  _50
REMARK   22  A    between atoms: _50  and  _51
REMARK   23  A    between atoms: _53  and  _55
REMARK   24  A    between atoms: _55  and  _56
REMARK   25  A    between atoms: _55  and  _58
REMARK   26  A    between atoms: _58  and  _59
REMARK   27  A    between atoms: _59  and  _60
REMARK   28  A    between atoms: _65  and  _67
REMARK   29  A    between atoms: _67  and  _68
REMARK   30  A    between atoms: _67  and  _70
REMARK   31  A    between atoms: _73  and  _75
REMARK   32  A    between atoms: _75  and  _76
REMARK   33  A    between atoms: _75  and  _78
REMARK   34  A    between atoms: _78  and  _79
REMARK   35  A    between atoms: _82  and  _84
REMARK   36  A    between atoms: _84  and  _85
REMARK   37  A    between atoms: _84  and  _87
REMARK   38  A    between atoms: _87  and  _88
REMARK   39  A    between atoms: _88  and  _89
REMARK   40  A    between atoms: _92  and  _94
REMARK   41  A    between atoms: _94  and  _95
REMARK   42  A    between atoms: _94  and  _97
REMARK   43  A    between atoms: _97  and  _98
REMARK   44  A    between atoms: _101  and  _103
REMARK   45  A    between atoms: _103  and  _104
REMARK   46  A    between atoms: _103  and  _106
REMARK   47  A    between atoms: _109  and  _111
REMARK   48  A    between atoms: _111  and  _112
REMARK   49  A    between atoms: _115  and  _117
REMARK   50  A    between atoms: _117  and  _118
REMARK   51  A    between atoms: _117  and  _120
REMARK   52  A    between atoms: _123  and  _125
REMARK   53  A    between atoms: _125  and  _126
REMARK   54  A    between atoms: _125  and  _128
REMARK   55  A    between atoms: _128  and  _129
REMARK   56  A    between atoms: _129  and  _130
REMARK   57  A    between atoms: _130  and  _131
REMARK   58  A    between atoms: _131  and  _132
REMARK   59  A    between atoms: _136  and  _138
REMARK   60  A    between atoms: _138  and  _139
REMARK   61  A    between atoms: _138  and  _141
REMARK   62  A    between atoms: _141  and  _142
REMARK   63  A    between atoms: _142  and  _143
REMARK   64  A    between atoms: _145  and  _147
REMARK   65  A    between atoms: _147  and  _148
REMARK   66  A    between atoms: _147  and  _150
REMARK   67  A    between atoms: _150  and  _151
REMARK   68  A    between atoms: _154  and  _156
REMARK   69  A    between atoms: _156  and  _157
REMARK   70  A    between atoms: _156  and  _159
REMARK   71  A    between atoms: _159  and  _160
REMARK   72  A    between atoms: _162  and  _164
REMARK   73  A    between atoms: _164  and  _165
REMARK   74  A    between atoms: _164  and  _167
REMARK   75  A    between atoms: _167  and  _168
REMARK   76  A    between atoms: _168  and  _169
REMARK   77  A    between atoms: _172  and  _174
REMARK   78  A    between atoms: _174  and  _175
REMARK   79  A    between atoms: _174  and  _177
REMARK   80  A    between atoms: _177  and  _178
REMARK   81  A    between atoms: _181  and  _183
REMARK   82  A    between atoms: _183  and  _184
REMARK   83  A    between atoms: _183  and  _186
REMARK   84  A    between atoms: _186  and  _187
REMARK   85  A    between atoms: _190  and  _192
REMARK   86  A    between atoms: _192  and  _193
REMARK   87  A    between atoms: _192  and  _195
REMARK   88  A    between atoms: _195  and  _196
REMARK   89  A    between atoms: _199  and  _201
REMARK   90  A    between atoms: _201  and  _202
REMARK   91  A    between atoms: _201  and  _204
REMARK   92  A    between atoms: _204  and  _205
REMARK   93  A    between atoms: _208  and  _210
REMARK   94  A    between atoms: _210  and  _211
REMARK   95  A    between atoms: _213  and  _215
REMARK   96  A    between atoms: _215  and  _216
REMARK   97  A    between atoms: _215  and  _218
REMARK   98  A    between atoms: _218  and  _219
REMARK   99  A    between atoms: _224  and  _226
REMARK  100  A    between atoms: _226  and  _227
REMARK  101  A    between atoms: _226  and  _229
REMARK  102  A    between atoms: _232  and  _234
REMARK  103  A    between atoms: _234  and  _235
REMARK  104  A    between atoms: _234  and  _237
REMARK  105  A    between atoms: _240  and  _242
REMARK  106  A    between atoms: _242  and  _243
REMARK  107  A    between atoms: _242  and  _245
REMARK  108  A    between atoms: _245  and  _246
REMARK  109  A    between atoms: _251  and  _253
REMARK  110  A    between atoms: _253  and  _254
REMARK  111  A    between atoms: _253  and  _256
REMARK  112  A    between atoms: _256  and  _257
REMARK  113  A    between atoms: _260  and  _262
REMARK  114  A    between atoms: _262  and  _263
REMARK  115  A    between atoms: _262  and  _265
REMARK  116  A    between atoms: _268  and  _270
REMARK  117  A    between atoms: _270  and  _271
REMARK  118  A    between atoms: _270  and  _273
REMARK  119  A    between atoms: _273  and  _274
REMARK  120  A    between atoms: _277  and  _279
REMARK  121  A    between atoms: _279  and  _280
REMARK  122  A    between atoms: _279  and  _282
REMARK  123  A    between atoms: _285  and  _287
REMARK  124  A    between atoms: _287  and  _288
REMARK  125  A    between atoms: _287  and  _290
REMARK  126  A    between atoms: _290  and  _291
REMARK  127  A    between atoms: _291  and  _292
REMARK  128  A    between atoms: _295  and  _297
REMARK  129  A    between atoms: _297  and  _298
REMARK  130  A    between atoms: _297  and  _300
REMARK  131  A    between atoms: _300  and  _301
REMARK  132  A    between atoms: _307  and  _309
REMARK  133  A    between atoms: _309  and  _310
REMARK  134  A    between atoms: _309  and  _312
REMARK  135  A    between atoms: _314  and  _316
REMARK  136  A    between atoms: _316  and  _317
REMARK  137  A    between atoms: _316  and  _319
REMARK  138  A    between atoms: _319  and  _320
REMARK  139  A    between atoms: _320  and  _321
REMARK  140  A    between atoms: _321  and  _322
REMARK  141  A    between atoms: _322  and  _323
REMARK  142  A    between atoms: _327  and  _329
REMARK  143  A    between atoms: _329  and  _330
REMARK  144  A    between atoms: _329  and  _332
REMARK  145  A    between atoms: _332  and  _333
REMARK  146  A    between atoms: _339  and  _341
REMARK  147  A    between atoms: _341  and  _342
REMARK  148  A    between atoms: _344  and  _346
REMARK  149  A    between atoms: _346  and  _347
REMARK  150  A    between atoms: _346  and  _349
REMARK  151  A    between atoms: _349  and  _350
REMARK  152  A    between atoms: _355  and  _357
REMARK  153  A    between atoms: _357  and  _358
REMARK  154  A    between atoms: _360  and  _362
REMARK  155  A    between atoms: _362  and  _363
REMARK  156  A    between atoms: _362  and  _365
REMARK  157  A    between atoms: _365  and  _366
REMARK  158  A    between atoms: _366  and  _367
REMARK  159  A    between atoms: _369  and  _371
REMARK  160  A    between atoms: _371  and  _372
REMARK  161  A    between atoms: _371  and  _374
REMARK  162  A    between atoms: _374  and  _375
REMARK  163  A    between atoms: _381  and  _383
REMARK  164  A    between atoms: _383  and  _384
REMARK  165  A    between atoms: _383  and  _386
REMARK  166  A    between atoms: _386  and  _387
REMARK  167  A    between atoms: _390  and  _392
REMARK  168  A    between atoms: _392  and  _393
REMARK  169  A    between atoms: _392  and  _395
REMARK  170  A    between atoms: _397  and  _399
REMARK  171  A    between atoms: _399  and  _400
REMARK  172  A    between atoms: _399  and  _402
REMARK  173  A    between atoms: _402  and  _403
REMARK  174  A    between atoms: _406  and  _408
REMARK  175  A    between atoms: _408  and  _409
REMARK  176  A    between atoms: _408  and  _411
REMARK  177  A    between atoms: _411  and  _412
REMARK  178  A    between atoms: _417  and  _419
REMARK  179  A    between atoms: _419  and  _420
REMARK  180  A    between atoms: _419  and  _422
REMARK  181  A    between atoms: _422  and  _423
REMARK  182  A    between atoms: _423  and  _424
REMARK  183  A    between atoms: _424  and  _425
REMARK  184  A    between atoms: _434  and  _436
REMARK  185  A    between atoms: _436  and  _437
REMARK  186  A    between atoms: _436  and  _439
REMARK  187  A    between atoms: _439  and  _440
REMARK  188  A    between atoms: _443  and  _445
REMARK  189  A    between atoms: _445  and  _446
REMARK  190  A    between atoms: _445  and  _448
REMARK  191  A    between atoms: _448  and  _449
REMARK  192  A    between atoms: _452  and  _454
REMARK  193  A    between atoms: _454  and  _455
REMARK  194  A    between atoms: _454  and  _457
REMARK  195  A    between atoms: _457  and  _458
REMARK  196  A    between atoms: _458  and  _459
REMARK  197  A    between atoms: _459  and  _460
REMARK  198  A    between atoms: _469  and  _471
REMARK  199  A    between atoms: _471  and  _472
REMARK  200  A    between atoms: _471  and  _474
REMARK  201  A    between atoms: _474  and  _475
REMARK  202  A    between atoms: _480  and  _482
REMARK  203  A    between atoms: _482  and  _483
REMARK  204  A    between atoms: _482  and  _485
REMARK  205  A    between atoms: _485  and  _486
REMARK  206  A    between atoms: _489  and  _491
REMARK  207  A    between atoms: _491  and  _492
REMARK  208  A    between atoms: _491  and  _494
REMARK  209  A    between atoms: _494  and  _495
REMARK  210  A    between atoms: _498  and  _500
REMARK  211  A    between atoms: _500  and  _501
REMARK  212  A    between atoms: _500  and  _503
REMARK  213  A    between atoms: _503  and  _504
REMARK  214  A    between atoms: _507  and  _509
REMARK  215  A    between atoms: _509  and  _510
REMARK  216  A    between atoms: _509  and  _512
REMARK  217  A    between atoms: _512  and  _513
REMARK  218  A    between atoms: _515  and  _517
REMARK  219  A    between atoms: _517  and  _518
REMARK  220  A    between atoms: _517  and  _520
REMARK  221  A    between atoms: _520  and  _521
REMARK  222  A    between atoms: _521  and  _522
REMARK  223  A    between atoms: _522  and  _523
REMARK  224  A    between atoms: _523  and  _524
REMARK  225  A    between atoms: _528  and  _530
REMARK  226  A    between atoms: _530  and  _531
REMARK  227  A    between atoms: _530  and  _533
REMARK  228  A    between atoms: _533  and  _534
REMARK  229  A    between atoms: _537  and  _539
REMARK  230  A    between atoms: _539  and  _540
REMARK  231  A    between atoms: _539  and  _542
REMARK  232  A    between atoms: _544  and  _546
REMARK  233  A    between atoms: _546  and  _547
REMARK  234  A    between atoms: _546  and  _549
REMARK  235  A    between atoms: _549  and  _550
REMARK  236  A    between atoms: _553  and  _555
REMARK  237  A    between atoms: _555  and  _556
REMARK  238  A    between atoms: _555  and  _558
REMARK  239  A    between atoms: _558  and  _559
REMARK  240  A    between atoms: _565  and  _567
REMARK  241  A    between atoms: _567  and  _568
REMARK  242  A    between atoms: _570  and  _572
REMARK  243  A    between atoms: _572  and  _573
REMARK  244  A    between atoms: _572  and  _575
REMARK  245  A    between atoms: _575  and  _576
REMARK  246  A    between atoms: _579  and  _581
REMARK  247  A    between atoms: _581  and  _582
REMARK  248  A    between atoms: _585  and  _587
REMARK  249  A    between atoms: _587  and  _588
REMARK  250  A    between atoms: _587  and  _590
REMARK  251  A    between atoms: _590  and  _591
REMARK  252  A    between atoms: _591  and  _592
REMARK  253  A    between atoms: _592  and  _593
REMARK                            x       y       z     vdW  Elec       q    Type
REMARK                         _______ _______ _______ _____ _____    ______ ____
ROOT
ATOM      1  O   HOH     1     -21.674  -6.981  -6.844  0.00  0.00    +0.000 OA
ENDROOT
TORSDOF 0
REMARK  Name = ../refined-set-2016/4asd/4asd_pocket.pdb
REMARK  253 active torsions:
REMARK  status: ('A' for Active; 'I' for Inactive)
REMARK    1  A    between atoms: _1  and  _3
REMARK    2  A    between atoms: _3  and  _4
REMARK    3  A    between atoms: _3  and  _6
REMARK    4  A    between atoms: _6  and  _7
REMARK    5  A    between atoms: _10  and  _12
REMARK    6  A    between atoms: _12  and  _13
REMARK    7  A    between atoms: _12  and  _15
REMARK    8  A    between atoms: _15  and  _16
REMARK    9  A    between atoms: _19  and  _21
REMARK   10  A    between atoms: _21  and  _22
REMARK   11  A    between atoms: _21  and  _24
REMARK   12  A    between atoms: _24  and  _25
REMARK   13  A    between atoms: _25  and  _26
REMARK   14  A    between atoms: _26  and  _27
REMARK   15  A    between atoms: _27  and  _28
REMARK   16  A    between atoms: _33  and  _34
REMARK   17  A    between atoms: _39  and  _41
REMARK   18  A    between atoms: _41  and  _42
REMARK   19  A    between atoms: _41  and  _44
REMARK   20  A    between atoms: _44  and  _45
REMARK   21  A    between atoms: _48  and  _50
REMARK   22  A    between atoms: _50  and  _51
REMARK   23  A    between atoms: _53  and  _55
REMARK   24  A    between atoms: _55  and  _56
REMARK   25  A    between atoms: _55  and  _58
REMARK   26  A    between atoms: _58  and  _59
REMARK   27  A    between atoms: _59  and  _60
REMARK   28  A    between atoms: _65  and  _67
REMARK   29  A    between atoms: _67  and  _68
REMARK   30  A    between atoms: _67  and  _70
REMARK   31  A    between atoms: _73  and  _75
REMARK   32  A    between atoms: _75  and  _76
REMARK   33  A    between atoms: _75  and  _78
REMARK   34  A    between atoms: _78  and  _79
REMARK   35  A    between atoms: _82  and  _84
REMARK   36  A    between atoms: _84  and  _85
REMARK   37  A    between atoms: _84  and  _87
REMARK   38  A    between atoms: _87  and  _88
REMARK   39  A    between atoms: _88  and  _89
REMARK   40  A    between atoms: _92  and  _94
REMARK   41  A    between atoms: _94  and  _95
REMARK   42  A    between atoms: _94  and  _97
REMARK   43  A    between atoms: _97  and  _98
REMARK   44  A    between atoms: _101  and  _103
REMARK   45  A    between atoms: _103  and  _104
REMARK   46  A    between atoms: _103  and  _106
REMARK   47  A    between atoms: _109  and  _111
REMARK   48  A    between atoms: _111  and  _112
REMARK   49  A    between atoms: _115  and  _117
REMARK   50  A    between atoms: _117  and  _118
REMARK   51  A    between atoms: _117  and  _120
REMARK   52  A    between atoms: _123  and  _125
REMARK   53  A    between atoms: _125  and  _126
REMARK   54  A    between atoms: _125  and  _128
REMARK   55  A    between atoms: _128  and  _129
REMARK   56  A    between atoms: _129  and  _130
REMARK   57  A    between atoms: _130  and  _131
REMARK   58  A    between atoms: _131  and  _132
REMARK   59  A    between atoms: _136  and  _138
REMARK   60  A    between atoms: _138  and  _139
REMARK   61  A    between atoms: _138  and  _141
REMARK   62  A    between atoms: _141  and  _142
REMARK   63  A    between atoms: _142  and  _143
REMARK   64  A    between atoms: _145  and  _147
REMARK   65  A    between atoms: _147  and  _148
REMARK   66  A    between atoms: _147  and  _150
REMARK   67  A    between atoms: _150  and  _151
REMARK   68  A    between atoms: _154  and  _156
REMARK   69  A    between atoms: _156  and  _157
REMARK   70  A    between atoms: _156  and  _159
REMARK   71  A    between atoms: _159  and  _160
REMARK   72  A    between atoms: _162  and  _164
REMARK   73  A    between atoms: _164  and  _165
REMARK   74  A    between atoms: _164  and  _167
REMARK   75  A    between atoms: _167  and  _168
REMARK   76  A    between atoms: _168  and  _169
REMARK   77  A    between atoms: _172  and  _174
REMARK   78  A    between atoms: _174  and  _175
REMARK   79  A    between atoms: _174  and  _177
REMARK   80  A    between atoms: _177  and  _178
REMARK   81  A    between atoms: _181  and  _183
REMARK   82  A    between atoms: _183  and  _184
REMARK   83  A    between atoms: _183  and  _186
REMARK   84  A    between atoms: _186  and  _187
REMARK   85  A    between atoms: _190  and  _192
REMARK   86  A    between atoms: _192  and  _193
REMARK   87  A    between atoms: _192  and  _195
REMARK   88  A    between atoms: _195  and  _196
REMARK   89  A    between atoms: _199  and  _201
REMARK   90  A    between atoms: _201  and  _202
REMARK   91  A    between atoms: _201  and  _204
REMARK   92  A    between atoms: _204  and  _205
REMARK   93  A    between atoms: _208  and  _210
REMARK   94  A    between atoms: _210  and  _211
REMARK   95  A    between atoms: _213  and  _215
REMARK   96  A    between atoms: _215  and  _216
REMARK   97  A    between atoms: _215  and  _218
REMARK   98  A    between atoms: _218  and  _219
REMARK   99  A    between atoms: _224  and  _226
REMARK  100  A    between atoms: _226  and  _227
REMARK  101  A    between atoms: _226  and  _229
REMARK  102  A    between atoms: _232  and  _234
REMARK  103  A    between atoms: _234  and  _235
REMARK  104  A    between atoms: _234  and  _237
REMARK  105  A    between atoms: _240  and  _242
REMARK  106  A    between atoms: _242  and  _243
REMARK  107  A    between atoms: _242  and  _245
REMARK  108  A    between atoms: _245  and  _246
REMARK  109  A    between atoms: _251  and  _253
REMARK  110  A    between atoms: _253  and  _254
REMARK  111  A    between atoms: _253  and  _256
REMARK  112  A    between atoms: _256  and  _257
REMARK  113  A    between atoms: _260  and  _262
REMARK  114  A    between atoms: _262  and  _263
REMARK  115  A    between atoms: _262  and  _265
REMARK  116  A    between atoms: _268  and  _270
REMARK  117  A    between atoms: _270  and  _271
REMARK  118  A    between atoms: _270  and  _273
REMARK  119  A    between atoms: _273  and  _274
REMARK  120  A    between atoms: _277  and  _279
REMARK  121  A    between atoms: _279  and  _280
REMARK  122  A    between atoms: _279  and  _282
REMARK  123  A    between atoms: _285  and  _287
REMARK  124  A    between atoms: _287  and  _288
REMARK  125  A    between atoms: _287  and  _290
REMARK  126  A    between atoms: _290  and  _291
REMARK  127  A    between atoms: _291  and  _292
REMARK  128  A    between atoms: _295  and  _297
REMARK  129  A    between atoms: _297  and  _298
REMARK  130  A    between atoms: _297  and  _300
REMARK  131  A    between atoms: _300  and  _301
REMARK  132  A    between atoms: _307  and  _309
REMARK  133  A    between atoms: _309  and  _310
REMARK  134  A    between atoms: _309  and  _312
REMARK  135  A    between atoms: _314  and  _316
REMARK  136  A    between atoms: _316  and  _317
REMARK  137  A    between atoms: _316  and  _319
REMARK  138  A    between atoms: _319  and  _320
REMARK  139  A    between atoms: _320  and  _321
REMARK  140  A    between atoms: _321  and  _322
REMARK  141  A    between atoms: _322  and  _323
REMARK  142  A    between atoms: _327  and  _329
REMARK  143  A    between atoms: _329  and  _330
REMARK  144  A    between atoms: _329  and  _332
REMARK  145  A    between atoms: _332  and  _333
REMARK  146  A    between atoms: _339  and  _341
REMARK  147  A    between atoms: _341  and  _342
REMARK  148  A    between atoms: _344  and  _346
REMARK  149  A    between atoms: _346  and  _347
REMARK  150  A    between atoms: _346  and  _349
REMARK  151  A    between atoms: _349  and  _350
REMARK  152  A    between atoms: _355  and  _357
REMARK  153  A    between atoms: _357  and  _358
REMARK  154  A    between atoms: _360  and  _362
REMARK  155  A    between atoms: _362  and  _363
REMARK  156  A    between atoms: _362  and  _365
REMARK  157  A    between atoms: _365  and  _366
REMARK  158  A    between atoms: _366  and  _367
REMARK  159  A    between atoms: _369  and  _371
REMARK  160  A    between atoms: _371  and  _372
REMARK  161  A    between atoms: _371  and  _374
REMARK  162  A    between atoms: _374  and  _375
REMARK  163  A    between atoms: _381  and  _383
REMARK  164  A    between atoms: _383  and  _384
REMARK  165  A    between atoms: _383  and  _386
REMARK  166  A    between atoms: _386  and  _387
REMARK  167  A    between atoms: _390  and  _392
REMARK  168  A    between atoms: _392  and  _393
REMARK  169  A    between atoms: _392  and  _395
REMARK  170  A    between atoms: _397  and  _399
REMARK  171  A    between atoms: _399  and  _400
REMARK  172  A    between atoms: _399  and  _402
REMARK  173  A    between atoms: _402  and  _403
REMARK  174  A    between atoms: _406  and  _408
REMARK  175  A    between atoms: _408  and  _409
REMARK  176  A    between atoms: _408  and  _411
REMARK  177  A    between atoms: _411  and  _412
REMARK  178  A    between atoms: _417  and  _419
REMARK  179  A    between atoms: _419  and  _420
REMARK  180  A    between atoms: _419  and  _422
REMARK  181  A    between atoms: _422  and  _423
REMARK  182  A    between atoms: _423  and  _424
REMARK  183  A    between atoms: _424  and  _425
REMARK  184  A    between atoms: _434  and  _436
REMARK  185  A    between atoms: _436  and  _437
REMARK  186  A    between atoms: _436  and  _439
REMARK  187  A    between atoms: _439  and  _440
REMARK  188  A    between atoms: _443  and  _445
REMARK  189  A    between atoms: _445  and  _446
REMARK  190  A    between atoms: _445  and  _448
REMARK  191  A    between atoms: _448  and  _449
REMARK  192  A    between atoms: _452  and  _454
REMARK  193  A    between atoms: _454  and  _455
REMARK  194  A    between atoms: _454  and  _457
REMARK  195  A    between atoms: _457  and  _458
REMARK  196  A    between atoms: _458  and  _459
REMARK  197  A    between atoms: _459  and  _460
REMARK  198  A    between atoms: _469  and  _471
REMARK  199  A    between atoms: _471  and  _472
REMARK  200  A    between atoms: _471  and  _474
REMARK  201  A    between atoms: _474  and  _475
REMARK  202  A    between atoms: _480  and  _482
REMARK  203  A    between atoms: _482  and  _483
REMARK  204  A    between atoms: _482  and  _485
REMARK  205  A    between atoms: _485  and  _486
REMARK  206  A    between atoms: _489  and  _491
REMARK  207  A    between atoms: _491  and  _492
REMARK  208  A    between atoms: _491  and  _494
REMARK  209  A    between atoms: _494  and  _495
REMARK  210  A    between atoms: _498  and  _500
REMARK  211  A    between atoms: _500  and  _501
REMARK  212  A    between atoms: _500  and  _503
REMARK  213  A    between atoms: _503  and  _504
REMARK  214  A    between atoms: _507  and  _509
REMARK  215  A    between atoms: _509  and  _510
REMARK  216  A    between atoms: _509  and  _512
REMARK  217  A    between atoms: _512  and  _513
REMARK  218  A    between atoms: _515  and  _517
REMARK  219  A    between atoms: _517  and  _518
REMARK  220  A    between atoms: _517  and  _520
REMARK  221  A    between atoms: _520  and  _521
REMARK  222  A    between atoms: _521  and  _522
REMARK  223  A    between atoms: _522  and  _523
REMARK  224  A    between atoms: _523  and  _524
REMARK  225  A    between atoms: _528  and  _530
REMARK  226  A    between atoms: _530  and  _531
REMARK  227  A    between atoms: _530  and  _533
REMARK  228  A    between atoms: _533  and  _534
REMARK  229  A    between atoms: _537  and  _539
REMARK  230  A    between atoms: _539  and  _540
REMARK  231  A    between atoms: _539  and  _542
REMARK  232  A    between atoms: _544  and  _546
REMARK  233  A    between atoms: _546  and  _547
REMARK  234  A    between atoms: _546  and  _549
REMARK  235  A    between atoms: _549  and  _550
REMARK  236  A    between atoms: _553  and  _555
REMARK  237  A    between atoms: _555  and  _556
REMARK  238  A    between atoms: _555  and  _558
REMARK  239  A    between atoms: _558  and  _559
REMARK  240  A    between atoms: _565  and  _567
REMARK  241  A    between atoms: _567  and  _568
REMARK  242  A    between atoms: _570  and  _572
REMARK  243  A    between atoms: _572  and  _573
REMARK  244  A    between atoms: _572  and  _575
REMARK  245  A    between atoms: _575  and  _576
REMARK  246  A    between atoms: _579  and  _581
REMARK  247  A    between atoms: _581  and  _582
REMARK  248  A    between atoms: _585  and  _587
REMARK  249  A    between atoms: _587  and  _588
REMARK  250  A    between atoms: _587  and  _590
REMARK  251  A    between atoms: _590  and  _591
REMARK  252  A    between atoms: _591  and  _592
REMARK  253  A    between atoms: _592  and  _593
REMARK                            x       y       z     vdW  Elec       q    Type
REMARK                         _______ _______ _______ _____ _____    ______ ____
ROOT
ATOM      1  O   HOH     1     -15.823  -2.715  -9.514  0.00  0.00    +0.000 OA
ENDROOT
TORSDOF 0
REMARK  Name = ../refined-set-2016/4asd/4asd_pocket.pdb
REMARK  253 active torsions:
REMARK  status: ('A' for Active; 'I' for Inactive)
REMARK    1  A    between atoms: _1  and  _3
REMARK    2  A    between atoms: _3  and  _4
REMARK    3  A    between atoms: _3  and  _6
REMARK    4  A    between atoms: _6  and  _7
REMARK    5  A    between atoms: _10  and  _12
REMARK    6  A    between atoms: _12  and  _13
REMARK    7  A    between atoms: _12  and  _15
REMARK    8  A    between atoms: _15  and  _16
REMARK    9  A    between atoms: _19  and  _21
REMARK   10  A    between atoms: _21  and  _22
REMARK   11  A    between atoms: _21  and  _24
REMARK   12  A    between atoms: _24  and  _25
REMARK   13  A    between atoms: _25  and  _26
REMARK   14  A    between atoms: _26  and  _27
REMARK   15  A    between atoms: _27  and  _28
REMARK   16  A    between atoms: _33  and  _34
REMARK   17  A    between atoms: _39  and  _41
REMARK   18  A    between atoms: _41  and  _42
REMARK   19  A    between atoms: _41  and  _44
REMARK   20  A    between atoms: _44  and  _45
REMARK   21  A    between atoms: _48  and  _50
REMARK   22  A    between atoms: _50  and  _51
REMARK   23  A    between atoms: _53  and  _55
REMARK   24  A    between atoms: _55  and  _56
REMARK   25  A    between atoms: _55  and  _58
REMARK   26  A    between atoms: _58  and  _59
REMARK   27  A    between atoms: _59  and  _60
REMARK   28  A    between atoms: _65  and  _67
REMARK   29  A    between atoms: _67  and  _68
REMARK   30  A    between atoms: _67  and  _70
REMARK   31  A    between atoms: _73  and  _75
REMARK   32  A    between atoms: _75  and  _76
REMARK   33  A    between atoms: _75  and  _78
REMARK   34  A    between atoms: _78  and  _79
REMARK   35  A    between atoms: _82  and  _84
REMARK   36  A    between atoms: _84  and  _85
REMARK   37  A    between atoms: _84  and  _87
REMARK   38  A    between atoms: _87  and  _88
REMARK   39  A    between atoms: _88  and  _89
REMARK   40  A    between atoms: _92  and  _94
REMARK   41  A    between atoms: _94  and  _95
REMARK   42  A    between atoms: _94  and  _97
REMARK   43  A    between atoms: _97  and  _98
REMARK   44  A    between atoms: _101  and  _103
REMARK   45  A    between atoms: _103  and  _104
REMARK   46  A    between atoms: _103  and  _106
REMARK   47  A    between atoms: _109  and  _111
REMARK   48  A    between atoms: _111  and  _112
REMARK   49  A    between atoms: _115  and  _117
REMARK   50  A    between atoms: _117  and  _118
REMARK   51  A    between atoms: _117  and  _120
REMARK   52  A    between atoms: _123  and  _125
REMARK   53  A    between atoms: _125  and  _126
REMARK   54  A    between atoms: _125  and  _128
REMARK   55  A    between atoms: _128  and  _129
REMARK   56  A    between atoms: _129  and  _130
REMARK   57  A    between atoms: _130  and  _131
REMARK   58  A    between atoms: _131  and  _132
REMARK   59  A    between atoms: _136  and  _138
REMARK   60  A    between atoms: _138  and  _139
REMARK   61  A    between atoms: _138  and  _141
REMARK   62  A    between atoms: _141  and  _142
REMARK   63  A    between atoms: _142  and  _143
REMARK   64  A    between atoms: _145  and  _147
REMARK   65  A    between atoms: _147  and  _148
REMARK   66  A    between atoms: _147  and  _150
REMARK   67  A    between atoms: _150  and  _151
REMARK   68  A    between atoms: _154  and  _156
REMARK   69  A    between atoms: _156  and  _157
REMARK   70  A    between atoms: _156  and  _159
REMARK   71  A    between atoms: _159  and  _160
REMARK   72  A    between atoms: _162  and  _164
REMARK   73  A    between atoms: _164  and  _165
REMARK   74  A    between atoms: _164  and  _167
REMARK   75  A    between atoms: _167  and  _168
REMARK   76  A    between atoms: _168  and  _169
REMARK   77  A    between atoms: _172  and  _174
REMARK   78  A    between atoms: _174  and  _175
REMARK   79  A    between atoms: _174  and  _177
REMARK   80  A    between atoms: _177  and  _178
REMARK   81  A    between atoms: _181  and  _183
REMARK   82  A    between atoms: _183  and  _184
REMARK   83  A    between atoms: _183  and  _186
REMARK   84  A    between atoms: _186  and  _187
REMARK   85  A    between atoms: _190  and  _192
REMARK   86  A    between atoms: _192  and  _193
REMARK   87  A    between atoms: _192  and  _195
REMARK   88  A    between atoms: _195  and  _196
REMARK   89  A    between atoms: _199  and  _201
REMARK   90  A    between atoms: _201  and  _202
REMARK   91  A    between atoms: _201  and  _204
REMARK   92  A    between atoms: _204  and  _205
REMARK   93  A    between atoms: _208  and  _210
REMARK   94  A    between atoms: _210  and  _211
REMARK   95  A    between atoms: _213  and  _215
REMARK   96  A    between atoms: _215  and  _216
REMARK   97  A    between atoms: _215  and  _218
REMARK   98  A    between atoms: _218  and  _219
REMARK   99  A    between atoms: _224  and  _226
REMARK  100  A    between atoms: _226  and  _227
REMARK  101  A    between atoms: _226  and  _229
REMARK  102  A    between atoms: _232  and  _234
REMARK  103  A    between atoms: _234  and  _235
REMARK  104  A    between atoms: _234  and  _237
REMARK  105  A    between atoms: _240  and  _242
REMARK  106  A    between atoms: _242  and  _243
REMARK  107  A    between atoms: _242  and  _245
REMARK  108  A    between atoms: _245  and  _246
REMARK  109  A    between atoms: _251  and  _253
REMARK  110  A    between atoms: _253  and  _254
REMARK  111  A    between atoms: _253  and  _256
REMARK  112  A    between atoms: _256  and  _257
REMARK  113  A    between atoms: _260  and  _262
REMARK  114  A    between atoms: _262  and  _263
REMARK  115  A    between atoms: _262  and  _265
REMARK  116  A    between atoms: _268  and  _270
REMARK  117  A    between atoms: _270  and  _271
REMARK  118  A    between atoms: _270  and  _273
REMARK  119  A    between atoms: _273  and  _274
REMARK  120  A    between atoms: _277  and  _279
REMARK  121  A    between atoms: _279  and  _280
REMARK  122  A    between atoms: _279  and  _282
REMARK  123  A    between atoms: _285  and  _287
REMARK  124  A    between atoms: _287  and  _288
REMARK  125  A    between atoms: _287  and  _290
REMARK  126  A    between atoms: _290  and  _291
REMARK  127  A    between atoms: _291  and  _292
REMARK  128  A    between atoms: _295  and  _297
REMARK  129  A    between atoms: _297  and  _298
REMARK  130  A    between atoms: _297  and  _300
REMARK  131  A    between atoms: _300  and  _301
REMARK  132  A    between atoms: _307  and  _309
REMARK  133  A    between atoms: _309  and  _310
REMARK  134  A    between atoms: _309  and  _312
REMARK  135  A    between atoms: _314  and  _316
REMARK  136  A    between atoms: _316  and  _317
REMARK  137  A    between atoms: _316  and  _319
REMARK  138  A    between atoms: _319  and  _320
REMARK  139  A    between atoms: _320  and  _321
REMARK  140  A    between atoms: _321  and  _322
REMARK  141  A    between atoms: _322  and  _323
REMARK  142  A    between atoms: _327  and  _329
REMARK  143  A    between atoms: _329  and  _330
REMARK  144  A    between atoms: _329  and  _332
REMARK  145  A    between atoms: _332  and  _333
REMARK  146  A    between atoms: _339  and  _341
REMARK  147  A    between atoms: _341  and  _342
REMARK  148  A    between atoms: _344  and  _346
REMARK  149  A    between atoms: _346  and  _347
REMARK  150  A    between atoms: _346  and  _349
REMARK  151  A    between atoms: _349  and  _350
REMARK  152  A    between atoms: _355  and  _357
REMARK  153  A    between atoms: _357  and  _358
REMARK  154  A    between atoms: _360  and  _362
REMARK  155  A    between atoms: _362  and  _363
REMARK  156  A    between atoms: _362  and  _365
REMARK  157  A    between atoms: _365  and  _366
REMARK  158  A    between atoms: _366  and  _367
REMARK  159  A    between atoms: _369  and  _371
REMARK  160  A    between atoms: _371  and  _372
REMARK  161  A    between atoms: _371  and  _374
REMARK  162  A    between atoms: _374  and  _375
REMARK  163  A    between atoms: _381  and  _383
REMARK  164  A    between atoms: _383  and  _384
REMARK  165  A    between atoms: _383  and  _386
REMARK  166  A    between atoms: _386  and  _387
REMARK  167  A    between atoms: _390  and  _392
REMARK  168  A    between atoms: _392  and  _393
REMARK  169  A    between atoms: _392  and  _395
REMARK  170  A    between atoms: _397  and  _399
REMARK  171  A    between atoms: _399  and  _400
REMARK  172  A    between atoms: _399  and  _402
REMARK  173  A    between atoms: _402  and  _403
REMARK  174  A    between atoms: _406  and  _408
REMARK  175  A    between atoms: _408  and  _409
REMARK  176  A    between atoms: _408  and  _411
REMARK  177  A    between atoms: _411  and  _412
REMARK  178  A    between atoms: _417  and  _419
REMARK  179  A    between atoms: _419  and  _420
REMARK  180  A    between atoms: _419  and  _422
REMARK  181  A    between atoms: _422  and  _423
REMARK  182  A    between atoms: _423  and  _424
REMARK  183  A    between atoms: _424  and  _425
REMARK  184  A    between atoms: _434  and  _436
REMARK  185  A    between atoms: _436  and  _437
REMARK  186  A    between atoms: _436  and  _439
REMARK  187  A    between atoms: _439  and  _440
REMARK  188  A    between atoms: _443  and  _445
REMARK  189  A    between atoms: _445  and  _446
REMARK  190  A    between atoms: _445  and  _448
REMARK  191  A    between atoms: _448  and  _449
REMARK  192  A    between atoms: _452  and  _454
REMARK  193  A    between atoms: _454  and  _455
REMARK  194  A    between atoms: _454  and  _457
REMARK  195  A    between atoms: _457  and  _458
REMARK  196  A    between atoms: _458  and  _459
REMARK  197  A    between atoms: _459  and  _460
REMARK  198  A    between atoms: _469  and  _471
REMARK  199  A    between atoms: _471  and  _472
REMARK  200  A    between atoms: _471  and  _474
REMARK  201  A    between atoms: _474  and  _475
REMARK  202  A    between atoms: _480  and  _482
REMARK  203  A    between atoms: _482  and  _483
REMARK  204  A    between atoms: _482  and  _485
REMARK  205  A    between atoms: _485  and  _486
REMARK  206  A    between atoms: _489  and  _491
REMARK  207  A    between atoms: _491  and  _492
REMARK  208  A    between atoms: _491  and  _494
REMARK  209  A    between atoms: _494  and  _495
REMARK  210  A    between atoms: _498  and  _500
REMARK  211  A    between atoms: _500  and  _501
REMARK  212  A    between atoms: _500  and  _503
REMARK  213  A    between atoms: _503  and  _504
REMARK  214  A    between atoms: _507  and  _509
REMARK  215  A    between atoms: _509  and  _510
REMARK  216  A    between atoms: _509  and  _512
REMARK  217  A    between atoms: _512  and  _513
REMARK  218  A    between atoms: _515  and  _517
REMARK  219  A    between atoms: _517  and  _518
REMARK  220  A    between atoms: _517  and  _520
REMARK  221  A    between atoms: _520  and  _521
REMARK  222  A    between atoms: _521  and  _522
REMARK  223  A    between atoms: _522  and  _523
REMARK  224  A    between atoms: _523  and  _524
REMARK  225  A    between atoms: _528  and  _530
REMARK  226  A    between atoms: _530  and  _531
REMARK  227  A    between atoms: _530  and  _533
REMARK  228  A    between atoms: _533  and  _534
REMARK  229  A    between atoms: _537  and  _539
REMARK  230  A    between atoms: _539  and  _540
REMARK  231  A    between atoms: _539  and  _542
REMARK  232  A    between atoms: _544  and  _546
REMARK  233  A    between atoms: _546  and  _547
REMARK  234  A    between atoms: _546  and  _549
REMARK  235  A    between atoms: _549  and  _550
REMARK  236  A    between atoms: _553  and  _555
REMARK  237  A    between atoms: _555  and  _556
REMARK  238  A    between atoms: _555  and  _558
REMARK  239  A    between atoms: _558  and  _559
REMARK  240  A    between atoms: _565  and  _567
REMARK  241  A    between atoms: _567  and  _568
REMARK  242  A    between atoms: _570  and  _572
REMARK  243  A    between atoms: _572  and  _573
REMARK  244  A    between atoms: _572  and  _575
REMARK  245  A    between atoms: _575  and  _576
REMARK  246  A    between atoms: _579  and  _581
REMARK  247  A    between atoms: _581  and  _582
REMARK  248  A    between atoms: _585  and  _587
REMARK  249  A    between atoms: _587  and  _588
REMARK  250  A    between atoms: _587  and  _590
REMARK  251  A    between atoms: _590  and  _591
REMARK  252  A    between atoms: _591  and  _592
REMARK  253  A    between atoms: _592  and  _593
REMARK                            x       y       z     vdW  Elec       q    Type
REMARK                         _______ _______ _______ _____ _____    ______ ____
ROOT
ATOM      1  O   HOH     1     -24.864  -9.419  -6.517  0.00  0.00    +0.000 OA
ENDROOT
TORSDOF 0
REMARK  Name = ../refined-set-2016/4asd/4asd_pocket.pdb
REMARK  253 active torsions:
REMARK  status: ('A' for Active; 'I' for Inactive)
REMARK    1  A    between atoms: _1  and  _3
REMARK    2  A    between atoms: _3  and  _4
REMARK    3  A    between atoms: _3  and  _6
REMARK    4  A    between atoms: _6  and  _7
REMARK    5  A    between atoms: _10  and  _12
REMARK    6  A    between atoms: _12  and  _13
REMARK    7  A    between atoms: _12  and  _15
REMARK    8  A    between atoms: _15  and  _16
REMARK    9  A    between atoms: _19  and  _21
REMARK   10  A    between atoms: _21  and  _22
REMARK   11  A    between atoms: _21  and  _24
REMARK   12  A    between atoms: _24  and  _25
REMARK   13  A    between atoms: _25  and  _26
REMARK   14  A    between atoms: _26  and  _27
REMARK   15  A    between atoms: _27  and  _28
REMARK   16  A    between atoms: _33  and  _34
REMARK   17  A    between atoms: _39  and  _41
REMARK   18  A    between atoms: _41  and  _42
REMARK   19  A    between atoms: _41  and  _44
REMARK   20  A    between atoms: _44  and  _45
REMARK   21  A    between atoms: _48  and  _50
REMARK   22  A    between atoms: _50  and  _51
REMARK   23  A    between atoms: _53  and  _55
REMARK   24  A    between atoms: _55  and  _56
REMARK   25  A    between atoms: _55  and  _58
REMARK   26  A    between atoms: _58  and  _59
REMARK   27  A    between atoms: _59  and  _60
REMARK   28  A    between atoms: _65  and  _67
REMARK   29  A    between atoms: _67  and  _68
REMARK   30  A    between atoms: _67  and  _70
REMARK   31  A    between atoms: _73  and  _75
REMARK   32  A    between atoms: _75  and  _76
REMARK   33  A    between atoms: _75  and  _78
REMARK   34  A    between atoms: _78  and  _79
REMARK   35  A    between atoms: _82  and  _84
REMARK   36  A    between atoms: _84  and  _85
REMARK   37  A    between atoms: _84  and  _87
REMARK   38  A    between atoms: _87  and  _88
REMARK   39  A    between atoms: _88  and  _89
REMARK   40  A    between atoms: _92  and  _94
REMARK   41  A    between atoms: _94  and  _95
REMARK   42  A    between atoms: _94  and  _97
REMARK   43  A    between atoms: _97  and  _98
REMARK   44  A    between atoms: _101  and  _103
REMARK   45  A    between atoms: _103  and  _104
REMARK   46  A    between atoms: _103  and  _106
REMARK   47  A    between atoms: _109  and  _111
REMARK   48  A    between atoms: _111  and  _112
REMARK   49  A    between atoms: _115  and  _117
REMARK   50  A    between atoms: _117  and  _118
REMARK   51  A    between atoms: _117  and  _120
REMARK   52  A    between atoms: _123  and  _125
REMARK   53  A    between atoms: _125  and  _126
REMARK   54  A    between atoms: _125  and  _128
REMARK   55  A    between atoms: _128  and  _129
REMARK   56  A    between atoms: _129  and  _130
REMARK   57  A    between atoms: _130  and  _131
REMARK   58  A    between atoms: _131  and  _132
REMARK   59  A    between atoms: _136  and  _138
REMARK   60  A    between atoms: _138  and  _139
REMARK   61  A    between atoms: _138  and  _141
REMARK   62  A    between atoms: _141  and  _142
REMARK   63  A    between atoms: _142  and  _143
REMARK   64  A    between atoms: _145  and  _147
REMARK   65  A    between atoms: _147  and  _148
REMARK   66  A    between atoms: _147  and  _150
REMARK   67  A    between atoms: _150  and  _151
REMARK   68  A    between atoms: _154  and  _156
REMARK   69  A    between atoms: _156  and  _157
REMARK   70  A    between atoms: _156  and  _159
REMARK   71  A    between atoms: _159  and  _160
REMARK   72  A    between atoms: _162  and  _164
REMARK   73  A    between atoms: _164  and  _165
REMARK   74  A    between atoms: _164  and  _167
REMARK   75  A    between atoms: _167  and  _168
REMARK   76  A    between atoms: _168  and  _169
REMARK   77  A    between atoms: _172  and  _174
REMARK   78  A    between atoms: _174  and  _175
REMARK   79  A    between atoms: _174  and  _177
REMARK   80  A    between atoms: _177  and  _178
REMARK   81  A    between atoms: _181  and  _183
REMARK   82  A    between atoms: _183  and  _184
REMARK   83  A    between atoms: _183  and  _186
REMARK   84  A    between atoms: _186  and  _187
REMARK   85  A    between atoms: _190  and  _192
REMARK   86  A    between atoms: _192  and  _193
REMARK   87  A    between atoms: _192  and  _195
REMARK   88  A    between atoms: _195  and  _196
REMARK   89  A    between atoms: _199  and  _201
REMARK   90  A    between atoms: _201  and  _202
REMARK   91  A    between atoms: _201  and  _204
REMARK   92  A    between atoms: _204  and  _205
REMARK   93  A    between atoms: _208  and  _210
REMARK   94  A    between atoms: _210  and  _211
REMARK   95  A    between atoms: _213  and  _215
REMARK   96  A    between atoms: _215  and  _216
REMARK   97  A    between atoms: _215  and  _218
REMARK   98  A    between atoms: _218  and  _219
REMARK   99  A    between atoms: _224  and  _226
REMARK  100  A    between atoms: _226  and  _227
REMARK  101  A    between atoms: _226  and  _229
REMARK  102  A    between atoms: _232  and  _234
REMARK  103  A    between atoms: _234  and  _235
REMARK  104  A    between atoms: _234  and  _237
REMARK  105  A    between atoms: _240  and  _242
REMARK  106  A    between atoms: _242  and  _243
REMARK  107  A    between atoms: _242  and  _245
REMARK  108  A    between atoms: _245  and  _246
REMARK  109  A    between atoms: _251  and  _253
REMARK  110  A    between atoms: _253  and  _254
REMARK  111  A    between atoms: _253  and  _256
REMARK  112  A    between atoms: _256  and  _257
REMARK  113  A    between atoms: _260  and  _262
REMARK  114  A    between atoms: _262  and  _263
REMARK  115  A    between atoms: _262  and  _265
REMARK  116  A    between atoms: _268  and  _270
REMARK  117  A    between atoms: _270  and  _271
REMARK  118  A    between atoms: _270  and  _273
REMARK  119  A    between atoms: _273  and  _274
REMARK  120  A    between atoms: _277  and  _279
REMARK  121  A    between atoms: _279  and  _280
REMARK  122  A    between atoms: _279  and  _282
REMARK  123  A    between atoms: _285  and  _287
REMARK  124  A    between atoms: _287  and  _288
REMARK  125  A    between atoms: _287  and  _290
REMARK  126  A    between atoms: _290  and  _291
REMARK  127  A    between atoms: _291  and  _292
REMARK  128  A    between atoms: _295  and  _297
REMARK  129  A    between atoms: _297  and  _298
REMARK  130  A    between atoms: _297  and  _300
REMARK  131  A    between atoms: _300  and  _301
REMARK  132  A    between atoms: _307  and  _309
REMARK  133  A    between atoms: _309  and  _310
REMARK  134  A    between atoms: _309  and  _312
REMARK  135  A    between atoms: _314  and  _316
REMARK  136  A    between atoms: _316  and  _317
REMARK  137  A    between atoms: _316  and  _319
REMARK  138  A    between atoms: _319  and  _320
REMARK  139  A    between atoms: _320  and  _321
REMARK  140  A    between atoms: _321  and  _322
REMARK  141  A    between atoms: _322  and  _323
REMARK  142  A    between atoms: _327  and  _329
REMARK  143  A    between atoms: _329  and  _330
REMARK  144  A    between atoms: _329  and  _332
REMARK  145  A    between atoms: _332  and  _333
REMARK  146  A    between atoms: _339  and  _341
REMARK  147  A    between atoms: _341  and  _342
REMARK  148  A    between atoms: _344  and  _346
REMARK  149  A    between atoms: _346  and  _347
REMARK  150  A    between atoms: _346  and  _349
REMARK  151  A    between atoms: _349  and  _350
REMARK  152  A    between atoms: _355  and  _357
REMARK  153  A    between atoms: _357  and  _358
REMARK  154  A    between atoms: _360  and  _362
REMARK  155  A    between atoms: _362  and  _363
REMARK  156  A    between atoms: _362  and  _365
REMARK  157  A    between atoms: _365  and  _366
REMARK  158  A    between atoms: _366  and  _367
REMARK  159  A    between atoms: _369  and  _371
REMARK  160  A    between atoms: _371  and  _372
REMARK  161  A    between atoms: _371  and  _374
REMARK  162  A    between atoms: _374  and  _375
REMARK  163  A    between atoms: _381  and  _383
REMARK  164  A    between atoms: _383  and  _384
REMARK  165  A    between atoms: _383  and  _386
REMARK  166  A    between atoms: _386  and  _387
REMARK  167  A    between atoms: _390  and  _392
REMARK  168  A    between atoms: _392  and  _393
REMARK  169  A    between atoms: _392  and  _395
REMARK  170  A    between atoms: _397  and  _399
REMARK  171  A    between atoms: _399  and  _400
REMARK  172  A    between atoms: _399  and  _402
REMARK  173  A    between atoms: _402  and  _403
REMARK  174  A    between atoms: _406  and  _408
REMARK  175  A    between atoms: _408  and  _409
REMARK  176  A    between atoms: _408  and  _411
REMARK  177  A    between atoms: _411  and  _412
REMARK  178  A    between atoms: _417  and  _419
REMARK  179  A    between atoms: _419  and  _420
REMARK  180  A    between atoms: _419  and  _422
REMARK  181  A    between atoms: _422  and  _423
REMARK  182  A    between atoms: _423  and  _424
REMARK  183  A    between atoms: _424  and  _425
REMARK  184  A    between atoms: _434  and  _436
REMARK  185  A    between atoms: _436  and  _437
REMARK  186  A    between atoms: _436  and  _439
REMARK  187  A    between atoms: _439  and  _440
REMARK  188  A    between atoms: _443  and  _445
REMARK  189  A    between atoms: _445  and  _446
REMARK  190  A    between atoms: _445  and  _448
REMARK  191  A    between atoms: _448  and  _449
REMARK  192  A    between atoms: _452  and  _454
REMARK  193  A    between atoms: _454  and  _455
REMARK  194  A    between atoms: _454  and  _457
REMARK  195  A    between atoms: _457  and  _458
REMARK  196  A    between atoms: _458  and  _459
REMARK  197  A    between atoms: _459  and  _460
REMARK  198  A    between atoms: _469  and  _471
REMARK  199  A    between atoms: _471  and  _472
REMARK  200  A    between atoms: _471  and  _474
REMARK  201  A    between atoms: _474  and  _475
REMARK  202  A    between atoms: _480  and  _482
REMARK  203  A    between atoms: _482  and  _483
REMARK  204  A    between atoms: _482  and  _485
REMARK  205  A    between atoms: _485  and  _486
REMARK  206  A    between atoms: _489  and  _491
REMARK  207  A    between atoms: _491  and  _492
REMARK  208  A    between atoms: _491  and  _494
REMARK  209  A    between atoms: _494  and  _495
REMARK  210  A    between atoms: _498  and  _500
REMARK  211  A    between atoms: _500  and  _501
REMARK  212  A    between atoms: _500  and  _503
REMARK  213  A    between atoms: _503  and  _504
REMARK  214  A    between atoms: _507  and  _509
REMARK  215  A    between atoms: _509  and  _510
REMARK  216  A    between atoms: _509  and  _512
REMARK  217  A    between atoms: _512  and  _513
REMARK  218  A    between atoms: _515  and  _517
REMARK  219  A    between atoms: _517  and  _518
REMARK  220  A    between atoms: _517  and  _520
REMARK  221  A    between atoms: _520  and  _521
REMARK  222  A    between atoms: _521  and  _522
REMARK  223  A    between atoms: _522  and  _523
REMARK  224  A    between atoms: _523  and  _524
REMARK  225  A    between atoms: _528  and  _530
REMARK  226  A    between atoms: _530  and  _531
REMARK  227  A    between atoms: _530  and  _533
REMARK  228  A    between atoms: _533  and  _534
REMARK  229  A    between atoms: _537  and  _539
REMARK  230  A    between atoms: _539  and  _540
REMARK  231  A    between atoms: _539  and  _542
REMARK  232  A    between atoms: _544  and  _546
REMARK  233  A    between atoms: _546  and  _547
REMARK  234  A    between atoms: _546  and  _549
REMARK  235  A    between atoms: _549  and  _550
REMARK  236  A    between atoms: _553  and  _555
REMARK  237  A    between atoms: _555  and  _556
REMARK  238  A    between atoms: _555  and  _558
REMARK  239  A    between atoms: _558  and  _559
REMARK  240  A    between atoms: _565  and  _567
REMARK  241  A    between atoms: _567  and  _568
REMARK  242  A    between atoms: _570  and  _572
REMARK  243  A    between atoms: _572  and  _573
REMARK  244  A    between atoms: _572  and  _575
REMARK  245  A    between atoms: _575  and  _576
REMARK  246  A    between atoms: _579  and  _581
REMARK  247  A    between atoms: _581  and  _582
REMARK  248  A    between atoms: _585  and  _587
REMARK  249  A    between atoms: _587  and  _588
REMARK  250  A    between atoms: _587  and  _590
REMARK  251  A    between atoms: _590  and  _591
REMARK  252  A    between atoms: _591  and  _592
REMARK  253  A    between atoms: _592  and  _593
REMARK                            x       y       z     vdW  Elec       q    Type
REMARK                         _______ _______ _______ _____ _____    ______ ____
ROOT
ATOM      1  O   HOH     1     -16.838  -5.847 -13.923  0.00  0.00    +0.000 OA
ENDROOT
TORSDOF 0
REMARK  Name = ../refined-set-2016/4asd/4asd_pocket.pdb
REMARK  253 active torsions:
REMARK  status: ('A' for Active; 'I' for Inactive)
REMARK    1  A    between atoms: _1  and  _3
REMARK    2  A    between atoms: _3  and  _4
REMARK    3  A    between atoms: _3  and  _6
REMARK    4  A    between atoms: _6  and  _7
REMARK    5  A    between atoms: _10  and  _12
REMARK    6  A    between atoms: _12  and  _13
REMARK    7  A    between atoms: _12  and  _15
REMARK    8  A    between atoms: _15  and  _16
REMARK    9  A    between atoms: _19  and  _21
REMARK   10  A    between atoms: _21  and  _22
REMARK   11  A    between atoms: _21  and  _24
REMARK   12  A    between atoms: _24  and  _25
REMARK   13  A    between atoms: _25  and  _26
REMARK   14  A    between atoms: _26  and  _27
REMARK   15  A    between atoms: _27  and  _28
REMARK   16  A    between atoms: _33  and  _34
REMARK   17  A    between atoms: _39  and  _41
REMARK   18  A    between atoms: _41  and  _42
REMARK   19  A    between atoms: _41  and  _44
REMARK   20  A    between atoms: _44  and  _45
REMARK   21  A    between atoms: _48  and  _50
REMARK   22  A    between atoms: _50  and  _51
REMARK   23  A    between atoms: _53  and  _55
REMARK   24  A    between atoms: _55  and  _56
REMARK   25  A    between atoms: _55  and  _58
REMARK   26  A    between atoms: _58  and  _59
REMARK   27  A    between atoms: _59  and  _60
REMARK   28  A    between atoms: _65  and  _67
REMARK   29  A    between atoms: _67  and  _68
REMARK   30  A    between atoms: _67  and  _70
REMARK   31  A    between atoms: _73  and  _75
REMARK   32  A    between atoms: _75  and  _76
REMARK   33  A    between atoms: _75  and  _78
REMARK   34  A    between atoms: _78  and  _79
REMARK   35  A    between atoms: _82  and  _84
REMARK   36  A    between atoms: _84  and  _85
REMARK   37  A    between atoms: _84  and  _87
REMARK   38  A    between atoms: _87  and  _88
REMARK   39  A    between atoms: _88  and  _89
REMARK   40  A    between atoms: _92  and  _94
REMARK   41  A    between atoms: _94  and  _95
REMARK   42  A    between atoms: _94  and  _97
REMARK   43  A    between atoms: _97  and  _98
REMARK   44  A    between atoms: _101  and  _103
REMARK   45  A    between atoms: _103  and  _104
REMARK   46  A    between atoms: _103  and  _106
REMARK   47  A    between atoms: _109  and  _111
REMARK   48  A    between atoms: _111  and  _112
REMARK   49  A    between atoms: _115  and  _117
REMARK   50  A    between atoms: _117  and  _118
REMARK   51  A    between atoms: _117  and  _120
REMARK   52  A    between atoms: _123  and  _125
REMARK   53  A    between atoms: _125  and  _126
REMARK   54  A    between atoms: _125  and  _128
REMARK   55  A    between atoms: _128  and  _129
REMARK   56  A    between atoms: _129  and  _130
REMARK   57  A    between atoms: _130  and  _131
REMARK   58  A    between atoms: _131  and  _132
REMARK   59  A    between atoms: _136  and  _138
REMARK   60  A    between atoms: _138  and  _139
REMARK   61  A    between atoms: _138  and  _141
REMARK   62  A    between atoms: _141  and  _142
REMARK   63  A    between atoms: _142  and  _143
REMARK   64  A    between atoms: _145  and  _147
REMARK   65  A    between atoms: _147  and  _148
REMARK   66  A    between atoms: _147  and  _150
REMARK   67  A    between atoms: _150  and  _151
REMARK   68  A    between atoms: _154  and  _156
REMARK   69  A    between atoms: _156  and  _157
REMARK   70  A    between atoms: _156  and  _159
REMARK   71  A    between atoms: _159  and  _160
REMARK   72  A    between atoms: _162  and  _164
REMARK   73  A    between atoms: _164  and  _165
REMARK   74  A    between atoms: _164  and  _167
REMARK   75  A    between atoms: _167  and  _168
REMARK   76  A    between atoms: _168  and  _169
REMARK   77  A    between atoms: _172  and  _174
REMARK   78  A    between atoms: _174  and  _175
REMARK   79  A    between atoms: _174  and  _177
REMARK   80  A    between atoms: _177  and  _178
REMARK   81  A    between atoms: _181  and  _183
REMARK   82  A    between atoms: _183  and  _184
REMARK   83  A    between atoms: _183  and  _186
REMARK   84  A    between atoms: _186  and  _187
REMARK   85  A    between atoms: _190  and  _192
REMARK   86  A    between atoms: _192  and  _193
REMARK   87  A    between atoms: _192  and  _195
REMARK   88  A    between atoms: _195  and  _196
REMARK   89  A    between atoms: _199  and  _201
REMARK   90  A    between atoms: _201  and  _202
REMARK   91  A    between atoms: _201  and  _204
REMARK   92  A    between atoms: _204  and  _205
REMARK   93  A    between atoms: _208  and  _210
REMARK   94  A    between atoms: _210  and  _211
REMARK   95  A    between atoms: _213  and  _215
REMARK   96  A    between atoms: _215  and  _216
REMARK   97  A    between atoms: _215  and  _218
REMARK   98  A    between atoms: _218  and  _219
REMARK   99  A    between atoms: _224  and  _226
REMARK  100  A    between atoms: _226  and  _227
REMARK  101  A    between atoms: _226  and  _229
REMARK  102  A    between atoms: _232  and  _234
REMARK  103  A    between atoms: _234  and  _235
REMARK  104  A    between atoms: _234  and  _237
REMARK  105  A    between atoms: _240  and  _242
REMARK  106  A    between atoms: _242  and  _243
REMARK  107  A    between atoms: _242  and  _245
REMARK  108  A    between atoms: _245  and  _246
REMARK  109  A    between atoms: _251  and  _253
REMARK  110  A    between atoms: _253  and  _254
REMARK  111  A    between atoms: _253  and  _256
REMARK  112  A    between atoms: _256  and  _257
REMARK  113  A    between atoms: _260  and  _262
REMARK  114  A    between atoms: _262  and  _263
REMARK  115  A    between atoms: _262  and  _265
REMARK  116  A    between atoms: _268  and  _270
REMARK  117  A    between atoms: _270  and  _271
REMARK  118  A    between atoms: _270  and  _273
REMARK  119  A    between atoms: _273  and  _274
REMARK  120  A    between atoms: _277  and  _279
REMARK  121  A    between atoms: _279  and  _280
REMARK  122  A    between atoms: _279  and  _282
REMARK  123  A    between atoms: _285  and  _287
REMARK  124  A    between atoms: _287  and  _288
REMARK  125  A    between atoms: _287  and  _290
REMARK  126  A    between atoms: _290  and  _291
REMARK  127  A    between atoms: _291  and  _292
REMARK  128  A    between atoms: _295  and  _297
REMARK  129  A    between atoms: _297  and  _298
REMARK  130  A    between atoms: _297  and  _300
REMARK  131  A    between atoms: _300  and  _301
REMARK  132  A    between atoms: _307  and  _309
REMARK  133  A    between atoms: _309  and  _310
REMARK  134  A    between atoms: _309  and  _312
REMARK  135  A    between atoms: _314  and  _316
REMARK  136  A    between atoms: _316  and  _317
REMARK  137  A    between atoms: _316  and  _319
REMARK  138  A    between atoms: _319  and  _320
REMARK  139  A    between atoms: _320  and  _321
REMARK  140  A    between atoms: _321  and  _322
REMARK  141  A    between atoms: _322  and  _323
REMARK  142  A    between atoms: _327  and  _329
REMARK  143  A    between atoms: _329  and  _330
REMARK  144  A    between atoms: _329  and  _332
REMARK  145  A    between atoms: _332  and  _333
REMARK  146  A    between atoms: _339  and  _341
REMARK  147  A    between atoms: _341  and  _342
REMARK  148  A    between atoms: _344  and  _346
REMARK  149  A    between atoms: _346  and  _347
REMARK  150  A    between atoms: _346  and  _349
REMARK  151  A    between atoms: _349  and  _350
REMARK  152  A    between atoms: _355  and  _357
REMARK  153  A    between atoms: _357  and  _358
REMARK  154  A    between atoms: _360  and  _362
REMARK  155  A    between atoms: _362  and  _363
REMARK  156  A    between atoms: _362  and  _365
REMARK  157  A    between atoms: _365  and  _366
REMARK  158  A    between atoms: _366  and  _367
REMARK  159  A    between atoms: _369  and  _371
REMARK  160  A    between atoms: _371  and  _372
REMARK  161  A    between atoms: _371  and  _374
REMARK  162  A    between atoms: _374  and  _375
REMARK  163  A    between atoms: _381  and  _383
REMARK  164  A    between atoms: _383  and  _384
REMARK  165  A    between atoms: _383  and  _386
REMARK  166  A    between atoms: _386  and  _387
REMARK  167  A    between atoms: _390  and  _392
REMARK  168  A    between atoms: _392  and  _393
REMARK  169  A    between atoms: _392  and  _395
REMARK  170  A    between atoms: _397  and  _399
REMARK  171  A    between atoms: _399  and  _400
REMARK  172  A    between atoms: _399  and  _402
REMARK  173  A    between atoms: _402  and  _403
REMARK  174  A    between atoms: _406  and  _408
REMARK  175  A    between atoms: _408  and  _409
REMARK  176  A    between atoms: _408  and  _411
REMARK  177  A    between atoms: _411  and  _412
REMARK  178  A    between atoms: _417  and  _419
REMARK  179  A    between atoms: _419  and  _420
REMARK  180  A    between atoms: _419  and  _422
REMARK  181  A    between atoms: _422  and  _423
REMARK  182  A    between atoms: _423  and  _424
REMARK  183  A    between atoms: _424  and  _425
REMARK  184  A    between atoms: _434  and  _436
REMARK  185  A    between atoms: _436  and  _437
REMARK  186  A    between atoms: _436  and  _439
REMARK  187  A    between atoms: _439  and  _440
REMARK  188  A    between atoms: _443  and  _445
REMARK  189  A    between atoms: _445  and  _446
REMARK  190  A    between atoms: _445  and  _448
REMARK  191  A    between atoms: _448  and  _449
REMARK  192  A    between atoms: _452  and  _454
REMARK  193  A    between atoms: _454  and  _455
REMARK  194  A    between atoms: _454  and  _457
REMARK  195  A    between atoms: _457  and  _458
REMARK  196  A    between atoms: _458  and  _459
REMARK  197  A    between atoms: _459  and  _460
REMARK  198  A    between atoms: _469  and  _471
REMARK  199  A    between atoms: _471  and  _472
REMARK  200  A    between atoms: _471  and  _474
REMARK  201  A    between atoms: _474  and  _475
REMARK  202  A    between atoms: _480  and  _482
REMARK  203  A    between atoms: _482  and  _483
REMARK  204  A    between atoms: _482  and  _485
REMARK  205  A    between atoms: _485  and  _486
REMARK  206  A    between atoms: _489  and  _491
REMARK  207  A    between atoms: _491  and  _492
REMARK  208  A    between atoms: _491  and  _494
REMARK  209  A    between atoms: _494  and  _495
REMARK  210  A    between atoms: _498  and  _500
REMARK  211  A    between atoms: _500  and  _501
REMARK  212  A    between atoms: _500  and  _503
REMARK  213  A    between atoms: _503  and  _504
REMARK  214  A    between atoms: _507  and  _509
REMARK  215  A    between atoms: _509  and  _510
REMARK  216  A    between atoms: _509  and  _512
REMARK  217  A    between atoms: _512  and  _513
REMARK  218  A    between atoms: _515  and  _517
REMARK  219  A    between atoms: _517  and  _518
REMARK  220  A    between atoms: _517  and  _520
REMARK  221  A    between atoms: _520  and  _521
REMARK  222  A    between atoms: _521  and  _522
REMARK  223  A    between atoms: _522  and  _523
REMARK  224  A    between atoms: _523  and  _524
REMARK  225  A    between atoms: _528  and  _530
REMARK  226  A    between atoms: _530  and  _531
REMARK  227  A    between atoms: _530  and  _533
REMARK  228  A    between atoms: _533  and  _534
REMARK  229  A    between atoms: _537  and  _539
REMARK  230  A    between atoms: _539  and  _540
REMARK  231  A    between atoms: _539  and  _542
REMARK  232  A    between atoms: _544  and  _546
REMARK  233  A    between atoms: _546  and  _547
REMARK  234  A    between atoms: _546  and  _549
REMARK  235  A    between atoms: _549  and  _550
REMARK  236  A    between atoms: _553  and  _555
REMARK  237  A    between atoms: _555  and  _556
REMARK  238  A    between atoms: _555  and  _558
REMARK  239  A    between atoms: _558  and  _559
REMARK  240  A    between atoms: _565  and  _567
REMARK  241  A    between atoms: _567  and  _568
REMARK  242  A    between atoms: _570  and  _572
REMARK  243  A    between atoms: _572  and  _573
REMARK  244  A    between atoms: _572  and  _575
REMARK  245  A    between atoms: _575  and  _576
REMARK  246  A    between atoms: _579  and  _581
REMARK  247  A    between atoms: _581  and  _582
REMARK  248  A    between atoms: _585  and  _587
REMARK  249  A    between atoms: _587  and  _588
REMARK  250  A    between atoms: _587  and  _590
REMARK  251  A    between atoms: _590  and  _591
REMARK  252  A    between atoms: _591  and  _592
REMARK  253  A    between atoms: _592  and  _593
REMARK                            x       y       z     vdW  Elec       q    Type
REMARK                         _______ _______ _______ _____ _____    ______ ____
ROOT
ATOM      1  O   HOH     1     -27.167 -10.313  -4.165  0.00  0.00    +0.000 OA
ENDROOT
TORSDOF 0
REMARK  Name = ../refined-set-2016/4asd/4asd_pocket.pdb
REMARK  253 active torsions:
REMARK  status: ('A' for Active; 'I' for Inactive)
REMARK    1  A    between atoms: _1  and  _3
REMARK    2  A    between atoms: _3  and  _4
REMARK    3  A    between atoms: _3  and  _6
REMARK    4  A    between atoms: _6  and  _7
REMARK    5  A    between atoms: _10  and  _12
REMARK    6  A    between atoms: _12  and  _13
REMARK    7  A    between atoms: _12  and  _15
REMARK    8  A    between atoms: _15  and  _16
REMARK    9  A    between atoms: _19  and  _21
REMARK   10  A    between atoms: _21  and  _22
REMARK   11  A    between atoms: _21  and  _24
REMARK   12  A    between atoms: _24  and  _25
REMARK   13  A    between atoms: _25  and  _26
REMARK   14  A    between atoms: _26  and  _27
REMARK   15  A    between atoms: _27  and  _28
REMARK   16  A    between atoms: _33  and  _34
REMARK   17  A    between atoms: _39  and  _41
REMARK   18  A    between atoms: _41  and  _42
REMARK   19  A    between atoms: _41  and  _44
REMARK   20  A    between atoms: _44  and  _45
REMARK   21  A    between atoms: _48  and  _50
REMARK   22  A    between atoms: _50  and  _51
REMARK   23  A    between atoms: _53  and  _55
REMARK   24  A    between atoms: _55  and  _56
REMARK   25  A    between atoms: _55  and  _58
REMARK   26  A    between atoms: _58  and  _59
REMARK   27  A    between atoms: _59  and  _60
REMARK   28  A    between atoms: _65  and  _67
REMARK   29  A    between atoms: _67  and  _68
REMARK   30  A    between atoms: _67  and  _70
REMARK   31  A    between atoms: _73  and  _75
REMARK   32  A    between atoms: _75  and  _76
REMARK   33  A    between atoms: _75  and  _78
REMARK   34  A    between atoms: _78  and  _79
REMARK   35  A    between atoms: _82  and  _84
REMARK   36  A    between atoms: _84  and  _85
REMARK   37  A    between atoms: _84  and  _87
REMARK   38  A    between atoms: _87  and  _88
REMARK   39  A    between atoms: _88  and  _89
REMARK   40  A    between atoms: _92  and  _94
REMARK   41  A    between atoms: _94  and  _95
REMARK   42  A    between atoms: _94  and  _97
REMARK   43  A    between atoms: _97  and  _98
REMARK   44  A    between atoms: _101  and  _103
REMARK   45  A    between atoms: _103  and  _104
REMARK   46  A    between atoms: _103  and  _106
REMARK   47  A    between atoms: _109  and  _111
REMARK   48  A    between atoms: _111  and  _112
REMARK   49  A    between atoms: _115  and  _117
REMARK   50  A    between atoms: _117  and  _118
REMARK   51  A    between atoms: _117  and  _120
REMARK   52  A    between atoms: _123  and  _125
REMARK   53  A    between atoms: _125  and  _126
REMARK   54  A    between atoms: _125  and  _128
REMARK   55  A    between atoms: _128  and  _129
REMARK   56  A    between atoms: _129  and  _130
REMARK   57  A    between atoms: _130  and  _131
REMARK   58  A    between atoms: _131  and  _132
REMARK   59  A    between atoms: _136  and  _138
REMARK   60  A    between atoms: _138  and  _139
REMARK   61  A    between atoms: _138  and  _141
REMARK   62  A    between atoms: _141  and  _142
REMARK   63  A    between atoms: _142  and  _143
REMARK   64  A    between atoms: _145  and  _147
REMARK   65  A    between atoms: _147  and  _148
REMARK   66  A    between atoms: _147  and  _150
REMARK   67  A    between atoms: _150  and  _151
REMARK   68  A    between atoms: _154  and  _156
REMARK   69  A    between atoms: _156  and  _157
REMARK   70  A    between atoms: _156  and  _159
REMARK   71  A    between atoms: _159  and  _160
REMARK   72  A    between atoms: _162  and  _164
REMARK   73  A    between atoms: _164  and  _165
REMARK   74  A    between atoms: _164  and  _167
REMARK   75  A    between atoms: _167  and  _168
REMARK   76  A    between atoms: _168  and  _169
REMARK   77  A    between atoms: _172  and  _174
REMARK   78  A    between atoms: _174  and  _175
REMARK   79  A    between atoms: _174  and  _177
REMARK   80  A    between atoms: _177  and  _178
REMARK   81  A    between atoms: _181  and  _183
REMARK   82  A    between atoms: _183  and  _184
REMARK   83  A    between atoms: _183  and  _186
REMARK   84  A    between atoms: _186  and  _187
REMARK   85  A    between atoms: _190  and  _192
REMARK   86  A    between atoms: _192  and  _193
REMARK   87  A    between atoms: _192  and  _195
REMARK   88  A    between atoms: _195  and  _196
REMARK   89  A    between atoms: _199  and  _201
REMARK   90  A    between atoms: _201  and  _202
REMARK   91  A    between atoms: _201  and  _204
REMARK   92  A    between atoms: _204  and  _205
REMARK   93  A    between atoms: _208  and  _210
REMARK   94  A    between atoms: _210  and  _211
REMARK   95  A    between atoms: _213  and  _215
REMARK   96  A    between atoms: _215  and  _216
REMARK   97  A    between atoms: _215  and  _218
REMARK   98  A    between atoms: _218  and  _219
REMARK   99  A    between atoms: _224  and  _226
REMARK  100  A    between atoms: _226  and  _227
REMARK  101  A    between atoms: _226  and  _229
REMARK  102  A    between atoms: _232  and  _234
REMARK  103  A    between atoms: _234  and  _235
REMARK  104  A    between atoms: _234  and  _237
REMARK  105  A    between atoms: _240  and  _242
REMARK  106  A    between atoms: _242  and  _243
REMARK  107  A    between atoms: _242  and  _245
REMARK  108  A    between atoms: _245  and  _246
REMARK  109  A    between atoms: _251  and  _253
REMARK  110  A    between atoms: _253  and  _254
REMARK  111  A    between atoms: _253  and  _256
REMARK  112  A    between atoms: _256  and  _257
REMARK  113  A    between atoms: _260  and  _262
REMARK  114  A    between atoms: _262  and  _263
REMARK  115  A    between atoms: _262  and  _265
REMARK  116  A    between atoms: _268  and  _270
REMARK  117  A    between atoms: _270  and  _271
REMARK  118  A    between atoms: _270  and  _273
REMARK  119  A    between atoms: _273  and  _274
REMARK  120  A    between atoms: _277  and  _279
REMARK  121  A    between atoms: _279  and  _280
REMARK  122  A    between atoms: _279  and  _282
REMARK  123  A    between atoms: _285  and  _287
REMARK  124  A    between atoms: _287  and  _288
REMARK  125  A    between atoms: _287  and  _290
REMARK  126  A    between atoms: _290  and  _291
REMARK  127  A    between atoms: _291  and  _292
REMARK  128  A    between atoms: _295  and  _297
REMARK  129  A    between atoms: _297  and  _298
REMARK  130  A    between atoms: _297  and  _300
REMARK  131  A    between atoms: _300  and  _301
REMARK  132  A    between atoms: _307  and  _309
REMARK  133  A    between atoms: _309  and  _310
REMARK  134  A    between atoms: _309  and  _312
REMARK  135  A    between atoms: _314  and  _316
REMARK  136  A    between atoms: _316  and  _317
REMARK  137  A    between atoms: _316  and  _319
REMARK  138  A    between atoms: _319  and  _320
REMARK  139  A    between atoms: _320  and  _321
REMARK  140  A    between atoms: _321  and  _322
REMARK  141  A    between atoms: _322  and  _323
REMARK  142  A    between atoms: _327  and  _329
REMARK  143  A    between atoms: _329  and  _330
REMARK  144  A    between atoms: _329  and  _332
REMARK  145  A    between atoms: _332  and  _333
REMARK  146  A    between atoms: _339  and  _341
REMARK  147  A    between atoms: _341  and  _342
REMARK  148  A    between atoms: _344  and  _346
REMARK  149  A    between atoms: _346  and  _347
REMARK  150  A    between atoms: _346  and  _349
REMARK  151  A    between atoms: _349  and  _350
REMARK  152  A    between atoms: _355  and  _357
REMARK  153  A    between atoms: _357  and  _358
REMARK  154  A    between atoms: _360  and  _362
REMARK  155  A    between atoms: _362  and  _363
REMARK  156  A    between atoms: _362  and  _365
REMARK  157  A    between atoms: _365  and  _366
REMARK  158  A    between atoms: _366  and  _367
REMARK  159  A    between atoms: _369  and  _371
REMARK  160  A    between atoms: _371  and  _372
REMARK  161  A    between atoms: _371  and  _374
REMARK  162  A    between atoms: _374  and  _375
REMARK  163  A    between atoms: _381  and  _383
REMARK  164  A    between atoms: _383  and  _384
REMARK  165  A    between atoms: _383  and  _386
REMARK  166  A    between atoms: _386  and  _387
REMARK  167  A    between atoms: _390  and  _392
REMARK  168  A    between atoms: _392  and  _393
REMARK  169  A    between atoms: _392  and  _395
REMARK  170  A    between atoms: _397  and  _399
REMARK  171  A    between atoms: _399  and  _400
REMARK  172  A    between atoms: _399  and  _402
REMARK  173  A    between atoms: _402  and  _403
REMARK  174  A    between atoms: _406  and  _408
REMARK  175  A    between atoms: _408  and  _409
REMARK  176  A    between atoms: _408  and  _411
REMARK  177  A    between atoms: _411  and  _412
REMARK  178  A    between atoms: _417  and  _419
REMARK  179  A    between atoms: _419  and  _420
REMARK  180  A    between atoms: _419  and  _422
REMARK  181  A    between atoms: _422  and  _423
REMARK  182  A    between atoms: _423  and  _424
REMARK  183  A    between atoms: _424  and  _425
REMARK  184  A    between atoms: _434  and  _436
REMARK  185  A    between atoms: _436  and  _437
REMARK  186  A    between atoms: _436  and  _439
REMARK  187  A    between atoms: _439  and  _440
REMARK  188  A    between atoms: _443  and  _445
REMARK  189  A    between atoms: _445  and  _446
REMARK  190  A    between atoms: _445  and  _448
REMARK  191  A    between atoms: _448  and  _449
REMARK  192  A    between atoms: _452  and  _454
REMARK  193  A    between atoms: _454  and  _455
REMARK  194  A    between atoms: _454  and  _457
REMARK  195  A    between atoms: _457  and  _458
REMARK  196  A    between atoms: _458  and  _459
REMARK  197  A    between atoms: _459  and  _460
REMARK  198  A    between atoms: _469  and  _471
REMARK  199  A    between atoms: _471  and  _472
REMARK  200  A    between atoms: _471  and  _474
REMARK  201  A    between atoms: _474  and  _475
REMARK  202  A    between atoms: _480  and  _482
REMARK  203  A    between atoms: _482  and  _483
REMARK  204  A    between atoms: _482  and  _485
REMARK  205  A    between atoms: _485  and  _486
REMARK  206  A    between atoms: _489  and  _491
REMARK  207  A    between atoms: _491  and  _492
REMARK  208  A    between atoms: _491  and  _494
REMARK  209  A    between atoms: _494  and  _495
REMARK  210  A    between atoms: _498  and  _500
REMARK  211  A    between atoms: _500  and  _501
REMARK  212  A    between atoms: _500  and  _503
REMARK  213  A    between atoms: _503  and  _504
REMARK  214  A    between atoms: _507  and  _509
REMARK  215  A    between atoms: _509  and  _510
REMARK  216  A    between atoms: _509  and  _512
REMARK  217  A    between atoms: _512  and  _513
REMARK  218  A    between atoms: _515  and  _517
REMARK  219  A    between atoms: _517  and  _518
REMARK  220  A    between atoms: _517  and  _520
REMARK  221  A    between atoms: _520  and  _521
REMARK  222  A    between atoms: _521  and  _522
REMARK  223  A    between atoms: _522  and  _523
REMARK  224  A    between atoms: _523  and  _524
REMARK  225  A    between atoms: _528  and  _530
REMARK  226  A    between atoms: _530  and  _531
REMARK  227  A    between atoms: _530  and  _533
REMARK  228  A    between atoms: _533  and  _534
REMARK  229  A    between atoms: _537  and  _539
REMARK  230  A    between atoms: _539  and  _540
REMARK  231  A    between atoms: _539  and  _542
REMARK  232  A    between atoms: _544  and  _546
REMARK  233  A    between atoms: _546  and  _547
REMARK  234  A    between atoms: _546  and  _549
REMARK  235  A    between atoms: _549  and  _550
REMARK  236  A    between atoms: _553  and  _555
REMARK  237  A    between atoms: _555  and  _556
REMARK  238  A    between atoms: _555  and  _558
REMARK  239  A    between atoms: _558  and  _559
REMARK  240  A    between atoms: _565  and  _567
REMARK  241  A    between atoms: _567  and  _568
REMARK  242  A    between atoms: _570  and  _572
REMARK  243  A    between atoms: _572  and  _573
REMARK  244  A    between atoms: _572  and  _575
REMARK  245  A    between atoms: _575  and  _576
REMARK  246  A    between atoms: _579  and  _581
REMARK  247  A    between atoms: _581  and  _582
REMARK  248  A    between atoms: _585  and  _587
REMARK  249  A    between atoms: _587  and  _588
REMARK  250  A    between atoms: _587  and  _590
REMARK  251  A    between atoms: _590  and  _591
REMARK  252  A    between atoms: _591  and  _592
REMARK  253  A    between atoms: _592  and  _593
REMARK                            x       y       z     vdW  Elec       q    Type
REMARK                         _______ _______ _______ _____ _____    ______ ____
ROOT
ATOM      1  O   HOH     1     -29.429  -7.379  -7.635  0.00  0.00    +0.000 OA
ENDROOT
TORSDOF 0
REMARK  Name = ../refined-set-2016/4asd/4asd_pocket.pdb
REMARK  253 active torsions:
REMARK  status: ('A' for Active; 'I' for Inactive)
REMARK    1  A    between atoms: _1  and  _3
REMARK    2  A    between atoms: _3  and  _4
REMARK    3  A    between atoms: _3  and  _6
REMARK    4  A    between atoms: _6  and  _7
REMARK    5  A    between atoms: _10  and  _12
REMARK    6  A    between atoms: _12  and  _13
REMARK    7  A    between atoms: _12  and  _15
REMARK    8  A    between atoms: _15  and  _16
REMARK    9  A    between atoms: _19  and  _21
REMARK   10  A    between atoms: _21  and  _22
REMARK   11  A    between atoms: _21  and  _24
REMARK   12  A    between atoms: _24  and  _25
REMARK   13  A    between atoms: _25  and  _26
REMARK   14  A    between atoms: _26  and  _27
REMARK   15  A    between atoms: _27  and  _28
REMARK   16  A    between atoms: _33  and  _34
REMARK   17  A    between atoms: _39  and  _41
REMARK   18  A    between atoms: _41  and  _42
REMARK   19  A    between atoms: _41  and  _44
REMARK   20  A    between atoms: _44  and  _45
REMARK   21  A    between atoms: _48  and  _50
REMARK   22  A    between atoms: _50  and  _51
REMARK   23  A    between atoms: _53  and  _55
REMARK   24  A    between atoms: _55  and  _56
REMARK   25  A    between atoms: _55  and  _58
REMARK   26  A    between atoms: _58  and  _59
REMARK   27  A    between atoms: _59  and  _60
REMARK   28  A    between atoms: _65  and  _67
REMARK   29  A    between atoms: _67  and  _68
REMARK   30  A    between atoms: _67  and  _70
REMARK   31  A    between atoms: _73  and  _75
REMARK   32  A    between atoms: _75  and  _76
REMARK   33  A    between atoms: _75  and  _78
REMARK   34  A    between atoms: _78  and  _79
REMARK   35  A    between atoms: _82  and  _84
REMARK   36  A    between atoms: _84  and  _85
REMARK   37  A    between atoms: _84  and  _87
REMARK   38  A    between atoms: _87  and  _88
REMARK   39  A    between atoms: _88  and  _89
REMARK   40  A    between atoms: _92  and  _94
REMARK   41  A    between atoms: _94  and  _95
REMARK   42  A    between atoms: _94  and  _97
REMARK   43  A    between atoms: _97  and  _98
REMARK   44  A    between atoms: _101  and  _103
REMARK   45  A    between atoms: _103  and  _104
REMARK   46  A    between atoms: _103  and  _106
REMARK   47  A    between atoms: _109  and  _111
REMARK   48  A    between atoms: _111  and  _112
REMARK   49  A    between atoms: _115  and  _117
REMARK   50  A    between atoms: _117  and  _118
REMARK   51  A    between atoms: _117  and  _120
REMARK   52  A    between atoms: _123  and  _125
REMARK   53  A    between atoms: _125  and  _126
REMARK   54  A    between atoms: _125  and  _128
REMARK   55  A    between atoms: _128  and  _129
REMARK   56  A    between atoms: _129  and  _130
REMARK   57  A    between atoms: _130  and  _131
REMARK   58  A    between atoms: _131  and  _132
REMARK   59  A    between atoms: _136  and  _138
REMARK   60  A    between atoms: _138  and  _139
REMARK   61  A    between atoms: _138  and  _141
REMARK   62  A    between atoms: _141  and  _142
REMARK   63  A    between atoms: _142  and  _143
REMARK   64  A    between atoms: _145  and  _147
REMARK   65  A    between atoms: _147  and  _148
REMARK   66  A    between atoms: _147  and  _150
REMARK   67  A    between atoms: _150  and  _151
REMARK   68  A    between atoms: _154  and  _156
REMARK   69  A    between atoms: _156  and  _157
REMARK   70  A    between atoms: _156  and  _159
REMARK   71  A    between atoms: _159  and  _160
REMARK   72  A    between atoms: _162  and  _164
REMARK   73  A    between atoms: _164  and  _165
REMARK   74  A    between atoms: _164  and  _167
REMARK   75  A    between atoms: _167  and  _168
REMARK   76  A    between atoms: _168  and  _169
REMARK   77  A    between atoms: _172  and  _174
REMARK   78  A    between atoms: _174  and  _175
REMARK   79  A    between atoms: _174  and  _177
REMARK   80  A    between atoms: _177  and  _178
REMARK   81  A    between atoms: _181  and  _183
REMARK   82  A    between atoms: _183  and  _184
REMARK   83  A    between atoms: _183  and  _186
REMARK   84  A    between atoms: _186  and  _187
REMARK   85  A    between atoms: _190  and  _192
REMARK   86  A    between atoms: _192  and  _193
REMARK   87  A    between atoms: _192  and  _195
REMARK   88  A    between atoms: _195  and  _196
REMARK   89  A    between atoms: _199  and  _201
REMARK   90  A    between atoms: _201  and  _202
REMARK   91  A    between atoms: _201  and  _204
REMARK   92  A    between atoms: _204  and  _205
REMARK   93  A    between atoms: _208  and  _210
REMARK   94  A    between atoms: _210  and  _211
REMARK   95  A    between atoms: _213  and  _215
REMARK   96  A    between atoms: _215  and  _216
REMARK   97  A    between atoms: _215  and  _218
REMARK   98  A    between atoms: _218  and  _219
REMARK   99  A    between atoms: _224  and  _226
REMARK  100  A    between atoms: _226  and  _227
REMARK  101  A    between atoms: _226  and  _229
REMARK  102  A    between atoms: _232  and  _234
REMARK  103  A    between atoms: _234  and  _235
REMARK  104  A    between atoms: _234  and  _237
REMARK  105  A    between atoms: _240  and  _242
REMARK  106  A    between atoms: _242  and  _243
REMARK  107  A    between atoms: _242  and  _245
REMARK  108  A    between atoms: _245  and  _246
REMARK  109  A    between atoms: _251  and  _253
REMARK  110  A    between atoms: _253  and  _254
REMARK  111  A    between atoms: _253  and  _256
REMARK  112  A    between atoms: _256  and  _257
REMARK  113  A    between atoms: _260  and  _262
REMARK  114  A    between atoms: _262  and  _263
REMARK  115  A    between atoms: _262  and  _265
REMARK  116  A    between atoms: _268  and  _270
REMARK  117  A    between atoms: _270  and  _271
REMARK  118  A    between atoms: _270  and  _273
REMARK  119  A    between atoms: _273  and  _274
REMARK  120  A    between atoms: _277  and  _279
REMARK  121  A    between atoms: _279  and  _280
REMARK  122  A    between atoms: _279  and  _282
REMARK  123  A    between atoms: _285  and  _287
REMARK  124  A    between atoms: _287  and  _288
REMARK  125  A    between atoms: _287  and  _290
REMARK  126  A    between atoms: _290  and  _291
REMARK  127  A    between atoms: _291  and  _292
REMARK  128  A    between atoms: _295  and  _297
REMARK  129  A    between atoms: _297  and  _298
REMARK  130  A    between atoms: _297  and  _300
REMARK  131  A    between atoms: _300  and  _301
REMARK  132  A    between atoms: _307  and  _309
REMARK  133  A    between atoms: _309  and  _310
REMARK  134  A    between atoms: _309  and  _312
REMARK  135  A    between atoms: _314  and  _316
REMARK  136  A    between atoms: _316  and  _317
REMARK  137  A    between atoms: _316  and  _319
REMARK  138  A    between atoms: _319  and  _320
REMARK  139  A    between atoms: _320  and  _321
REMARK  140  A    between atoms: _321  and  _322
REMARK  141  A    between atoms: _322  and  _323
REMARK  142  A    between atoms: _327  and  _329
REMARK  143  A    between atoms: _329  and  _330
REMARK  144  A    between atoms: _329  and  _332
REMARK  145  A    between atoms: _332  and  _333
REMARK  146  A    between atoms: _339  and  _341
REMARK  147  A    between atoms: _341  and  _342
REMARK  148  A    between atoms: _344  and  _346
REMARK  149  A    between atoms: _346  and  _347
REMARK  150  A    between atoms: _346  and  _349
REMARK  151  A    between atoms: _349  and  _350
REMARK  152  A    between atoms: _355  and  _357
REMARK  153  A    between atoms: _357  and  _358
REMARK  154  A    between atoms: _360  and  _362
REMARK  155  A    between atoms: _362  and  _363
REMARK  156  A    between atoms: _362  and  _365
REMARK  157  A    between atoms: _365  and  _366
REMARK  158  A    between atoms: _366  and  _367
REMARK  159  A    between atoms: _369  and  _371
REMARK  160  A    between atoms: _371  and  _372
REMARK  161  A    between atoms: _371  and  _374
REMARK  162  A    between atoms: _374  and  _375
REMARK  163  A    between atoms: _381  and  _383
REMARK  164  A    between atoms: _383  and  _384
REMARK  165  A    between atoms: _383  and  _386
REMARK  166  A    between atoms: _386  and  _387
REMARK  167  A    between atoms: _390  and  _392
REMARK  168  A    between atoms: _392  and  _393
REMARK  169  A    between atoms: _392  and  _395
REMARK  170  A    between atoms: _397  and  _399
REMARK  171  A    between atoms: _399  and  _400
REMARK  172  A    between atoms: _399  and  _402
REMARK  173  A    between atoms: _402  and  _403
REMARK  174  A    between atoms: _406  and  _408
REMARK  175  A    between atoms: _408  and  _409
REMARK  176  A    between atoms: _408  and  _411
REMARK  177  A    between atoms: _411  and  _412
REMARK  178  A    between atoms: _417  and  _419
REMARK  179  A    between atoms: _419  and  _420
REMARK  180  A    between atoms: _419  and  _422
REMARK  181  A    between atoms: _422  and  _423
REMARK  182  A    between atoms: _423  and  _424
REMARK  183  A    between atoms: _424  and  _425
REMARK  184  A    between atoms: _434  and  _436
REMARK  185  A    between atoms: _436  and  _437
REMARK  186  A    between atoms: _436  and  _439
REMARK  187  A    between atoms: _439  and  _440
REMARK  188  A    between atoms: _443  and  _445
REMARK  189  A    between atoms: _445  and  _446
REMARK  190  A    between atoms: _445  and  _448
REMARK  191  A    between atoms: _448  and  _449
REMARK  192  A    between atoms: _452  and  _454
REMARK  193  A    between atoms: _454  and  _455
REMARK  194  A    between atoms: _454  and  _457
REMARK  195  A    between atoms: _457  and  _458
REMARK  196  A    between atoms: _458  and  _459
REMARK  197  A    between atoms: _459  and  _460
REMARK  198  A    between atoms: _469  and  _471
REMARK  199  A    between atoms: _471  and  _472
REMARK  200  A    between atoms: _471  and  _474
REMARK  201  A    between atoms: _474  and  _475
REMARK  202  A    between atoms: _480  and  _482
REMARK  203  A    between atoms: _482  and  _483
REMARK  204  A    between atoms: _482  and  _485
REMARK  205  A    between atoms: _485  and  _486
REMARK  206  A    between atoms: _489  and  _491
REMARK  207  A    between atoms: _491  and  _492
REMARK  208  A    between atoms: _491  and  _494
REMARK  209  A    between atoms: _494  and  _495
REMARK  210  A    between atoms: _498  and  _500
REMARK  211  A    between atoms: _500  and  _501
REMARK  212  A    between atoms: _500  and  _503
REMARK  213  A    between atoms: _503  and  _504
REMARK  214  A    between atoms: _507  and  _509
REMARK  215  A    between atoms: _509  and  _510
REMARK  216  A    between atoms: _509  and  _512
REMARK  217  A    between atoms: _512  and  _513
REMARK  218  A    between atoms: _515  and  _517
REMARK  219  A    between atoms: _517  and  _518
REMARK  220  A    between atoms: _517  and  _520
REMARK  221  A    between atoms: _520  and  _521
REMARK  222  A    between atoms: _521  and  _522
REMARK  223  A    between atoms: _522  and  _523
REMARK  224  A    between atoms: _523  and  _524
REMARK  225  A    between atoms: _528  and  _530
REMARK  226  A    between atoms: _530  and  _531
REMARK  227  A    between atoms: _530  and  _533
REMARK  228  A    between atoms: _533  and  _534
REMARK  229  A    between atoms: _537  and  _539
REMARK  230  A    between atoms: _539  and  _540
REMARK  231  A    between atoms: _539  and  _542
REMARK  232  A    between atoms: _544  and  _546
REMARK  233  A    between atoms: _546  and  _547
REMARK  234  A    between atoms: _546  and  _549
REMARK  235  A    between atoms: _549  and  _550
REMARK  236  A    between atoms: _553  and  _555
REMARK  237  A    between atoms: _555  and  _556
REMARK  238  A    between atoms: _555  and  _558
REMARK  239  A    between atoms: _558  and  _559
REMARK  240  A    between atoms: _565  and  _567
REMARK  241  A    between atoms: _567  and  _568
REMARK  242  A    between atoms: _570  and  _572
REMARK  243  A    between atoms: _572  and  _573
REMARK  244  A    between atoms: _572  and  _575
REMARK  245  A    between atoms: _575  and  _576
REMARK  246  A    between atoms: _579  and  _581
REMARK  247  A    between atoms: _581  and  _582
REMARK  248  A    between atoms: _585  and  _587
REMARK  249  A    between atoms: _587  and  _588
REMARK  250  A    between atoms: _587  and  _590
REMARK  251  A    between atoms: _590  and  _591
REMARK  252  A    between atoms: _591  and  _592
REMARK  253  A    between atoms: _592  and  _593
REMARK                            x       y       z     vdW  Elec       q    Type
REMARK                         _______ _______ _______ _____ _____    ______ ____
ROOT
ATOM      1  O   HOH     1     -29.147 -10.848  -9.852  0.00  0.00    +0.000 OA
ENDROOT
TORSDOF 0
