REMARK  Name = ../refined-set-2016/4h3f/4h3f_pocket.pdb
REMARK  222 active torsions:
REMARK  status: ('A' for Active; 'I' for Inactive)
REMARK    1  A    between atoms: _1  and  _3
REMARK    2  A    between atoms: _3  and  _4
REMARK    3  A    between atoms: _3  and  _6
REMARK    4  A    between atoms: _6  and  _7
REMARK    5  A    between atoms: _7  and  _8
REMARK    6  A    between atoms: _8  and  _9
REMARK    7  A    between atoms: _9  and  _10
REMARK    8  A    between atoms: _14  and  _16
REMARK    9  A    between atoms: _16  and  _17
REMARK   10  A    between atoms: _16  and  _19
REMARK   11  A    between atoms: _19  and  _20
REMARK   12  A    between atoms: _22  and  _24
REMARK   13  A    between atoms: _24  and  _25
REMARK   14  A    between atoms: _27  and  _29
REMARK   15  A    between atoms: _29  and  _30
REMARK   16  A    between atoms: _29  and  _32
REMARK   17  A    between atoms: _32  and  _33
REMARK   18  A    between atoms: _33  and  _34
REMARK   19  A    between atoms: _39  and  _41
REMARK   20  A    between atoms: _41  and  _42
REMARK   21  A    between atoms: _44  and  _46
REMARK   22  A    between atoms: _46  and  _47
REMARK   23  A    between atoms: _46  and  _49
REMARK   24  A    between atoms: _49  and  _50
REMARK   25  A    between atoms: _55  and  _56
REMARK   26  A    between atoms: _58  and  _60
REMARK   27  A    between atoms: _60  and  _61
REMARK   28  A    between atoms: _60  and  _63
REMARK   29  A    between atoms: _63  and  _64
REMARK   30  A    between atoms: _67  and  _69
REMARK   31  A    between atoms: _69  and  _70
REMARK   32  A    between atoms: _69  and  _72
REMARK   33  A    between atoms: _75  and  _77
REMARK   34  A    between atoms: _77  and  _78
REMARK   35  A    between atoms: _77  and  _80
REMARK   36  A    between atoms: _80  and  _81
REMARK   37  A    between atoms: _84  and  _86
REMARK   38  A    between atoms: _86  and  _87
REMARK   39  A    between atoms: _86  and  _89
REMARK   40  A    between atoms: _89  and  _90
REMARK   41  A    between atoms: _93  and  _95
REMARK   42  A    between atoms: _95  and  _96
REMARK   43  A    between atoms: _98  and  _100
REMARK   44  A    between atoms: _100  and  _101
REMARK   45  A    between atoms: _100  and  _103
REMARK   46  A    between atoms: _103  and  _104
REMARK   47  A    between atoms: _106  and  _108
REMARK   48  A    between atoms: _108  and  _109
REMARK   49  A    between atoms: _108  and  _111
REMARK   50  A    between atoms: _111  and  _112
REMARK   51  A    between atoms: _114  and  _116
REMARK   52  A    between atoms: _116  and  _117
REMARK   53  A    between atoms: _116  and  _119
REMARK   54  A    between atoms: _119  and  _120
REMARK   55  A    between atoms: _125  and  _127
REMARK   56  A    between atoms: _127  and  _128
REMARK   57  A    between atoms: _127  and  _130
REMARK   58  A    between atoms: _130  and  _131
REMARK   59  A    between atoms: _137  and  _139
REMARK   60  A    between atoms: _139  and  _140
REMARK   61  A    between atoms: _143  and  _145
REMARK   62  A    between atoms: _145  and  _146
REMARK   63  A    between atoms: _145  and  _148
REMARK   64  A    between atoms: _151  and  _153
REMARK   65  A    between atoms: _153  and  _154
REMARK   66  A    between atoms: _153  and  _156
REMARK   67  A    between atoms: _159  and  _161
REMARK   68  A    between atoms: _161  and  _162
REMARK   69  A    between atoms: _161  and  _164
REMARK   70  A    between atoms: _164  and  _165
REMARK   71  A    between atoms: _170  and  _171
REMARK   72  A    between atoms: _173  and  _175
REMARK   73  A    between atoms: _175  and  _176
REMARK   74  A    between atoms: _175  and  _178
REMARK   75  A    between atoms: _182  and  _183
REMARK   76  A    between atoms: _188  and  _190
REMARK   77  A    between atoms: _190  and  _191
REMARK   78  A    between atoms: _190  and  _193
REMARK   79  A    between atoms: _193  and  _194
REMARK   80  A    between atoms: _199  and  _200
REMARK   81  A    between atoms: _202  and  _204
REMARK   82  A    between atoms: _204  and  _205
REMARK   83  A    between atoms: _204  and  _207
REMARK   84  A    between atoms: _207  and  _208
REMARK   85  A    between atoms: _211  and  _213
REMARK   86  A    between atoms: _213  and  _214
REMARK   87  A    between atoms: _213  and  _216
REMARK   88  A    between atoms: _216  and  _217
REMARK   89  A    between atoms: _217  and  _218
REMARK   90  A    between atoms: _223  and  _225
REMARK   91  A    between atoms: _225  and  _226
REMARK   92  A    between atoms: _228  and  _230
REMARK   93  A    between atoms: _230  and  _231
REMARK   94  A    between atoms: _230  and  _233
REMARK   95  A    between atoms: _233  and  _234
REMARK   96  A    between atoms: _234  and  _235
REMARK   97  A    between atoms: _235  and  _236
REMARK   98  A    between atoms: _236  and  _237
REMARK   99  A    between atoms: _241  and  _243
REMARK  100  A    between atoms: _243  and  _244
REMARK  101  A    between atoms: _243  and  _246
REMARK  102  A    between atoms: _246  and  _247
REMARK  103  A    between atoms: _257  and  _259
REMARK  104  A    between atoms: _259  and  _260
REMARK  105  A    between atoms: _263  and  _265
REMARK  106  A    between atoms: _265  and  _266
REMARK  107  A    between atoms: _265  and  _268
REMARK  108  A    between atoms: _268  and  _269
REMARK  109  A    between atoms: _272  and  _274
REMARK  110  A    between atoms: _274  and  _275
REMARK  111  A    between atoms: _274  and  _277
REMARK  112  A    between atoms: _277  and  _278
REMARK  113  A    between atoms: _281  and  _283
REMARK  114  A    between atoms: _283  and  _284
REMARK  115  A    between atoms: _283  and  _286
REMARK  116  A    between atoms: _286  and  _287
REMARK  117  A    between atoms: _287  and  _288
REMARK  118  A    between atoms: _288  and  _289
REMARK  119  A    between atoms: _289  and  _290
REMARK  120  A    between atoms: _294  and  _296
REMARK  121  A    between atoms: _296  and  _297
REMARK  122  A    between atoms: _296  and  _299
REMARK  123  A    between atoms: _299  and  _300
REMARK  124  A    between atoms: _306  and  _308
REMARK  125  A    between atoms: _308  and  _309
REMARK  126  A    between atoms: _308  and  _311
REMARK  127  A    between atoms: _311  and  _312
REMARK  128  A    between atoms: _318  and  _320
REMARK  129  A    between atoms: _320  and  _321
REMARK  130  A    between atoms: _320  and  _323
REMARK  131  A    between atoms: _323  and  _324
REMARK  132  A    between atoms: _327  and  _329
REMARK  133  A    between atoms: _329  and  _330
REMARK  134  A    between atoms: _329  and  _332
REMARK  135  A    between atoms: _332  and  _333
REMARK  136  A    between atoms: _335  and  _337
REMARK  137  A    between atoms: _337  and  _338
REMARK  138  A    between atoms: _337  and  _340
REMARK  139  A    between atoms: _340  and  _341
REMARK  140  A    between atoms: _351  and  _353
REMARK  141  A    between atoms: _353  and  _354
REMARK  142  A    between atoms: _356  and  _358
REMARK  143  A    between atoms: _358  and  _359
REMARK  144  A    between atoms: _358  and  _361
REMARK  145  A    between atoms: _361  and  _362
REMARK  146  A    between atoms: _365  and  _367
REMARK  147  A    between atoms: _367  and  _368
REMARK  148  A    between atoms: _367  and  _370
REMARK  149  A    between atoms: _370  and  _371
REMARK  150  A    between atoms: _374  and  _376
REMARK  151  A    between atoms: _376  and  _377
REMARK  152  A    between atoms: _379  and  _381
REMARK  153  A    between atoms: _381  and  _382
REMARK  154  A    between atoms: _381  and  _384
REMARK  155  A    between atoms: _384  and  _385
REMARK  156  A    between atoms: _388  and  _390
REMARK  157  A    between atoms: _390  and  _391
REMARK  158  A    between atoms: _390  and  _393
REMARK  159  A    between atoms: _393  and  _394
REMARK  160  A    between atoms: _397  and  _399
REMARK  161  A    between atoms: _399  and  _400
REMARK  162  A    between atoms: _403  and  _405
REMARK  163  A    between atoms: _405  and  _406
REMARK  164  A    between atoms: _405  and  _408
REMARK  165  A    between atoms: _408  and  _409
REMARK  166  A    between atoms: _409  and  _410
REMARK  167  A    between atoms: _410  and  _411
REMARK  168  A    between atoms: _421  and  _422
REMARK  169  A    between atoms: _427  and  _429
REMARK  170  A    between atoms: _429  and  _430
REMARK  171  A    between atoms: _429  and  _432
REMARK  172  A    between atoms: _432  and  _433
REMARK  173  A    between atoms: _436  and  _438
REMARK  174  A    between atoms: _438  and  _439
REMARK  175  A    between atoms: _438  and  _441
REMARK  176  A    between atoms: _441  and  _442
REMARK  177  A    between atoms: _447  and  _448
REMARK  178  A    between atoms: _450  and  _452
REMARK  179  A    between atoms: _452  and  _453
REMARK  180  A    between atoms: _452  and  _455
REMARK  181  A    between atoms: _455  and  _456
REMARK  182  A    between atoms: _459  and  _461
REMARK  183  A    between atoms: _461  and  _462
REMARK  184  A    between atoms: _461  and  _464
REMARK  185  A    between atoms: _467  and  _469
REMARK  186  A    between atoms: _469  and  _470
REMARK  187  A    between atoms: _469  and  _472
REMARK  188  A    between atoms: _472  and  _473
REMARK  189  A    between atoms: _476  and  _478
REMARK  190  A    between atoms: _478  and  _479
REMARK  191  A    between atoms: _478  and  _481
REMARK  192  A    between atoms: _481  and  _482
REMARK  193  A    between atoms: _484  and  _486
REMARK  194  A    between atoms: _486  and  _487
REMARK  195  A    between atoms: _489  and  _491
REMARK  196  A    between atoms: _491  and  _492
REMARK  197  A    between atoms: _491  and  _494
REMARK  198  A    between atoms: _494  and  _495
REMARK  199  A    between atoms: _498  and  _500
REMARK  200  A    between atoms: _500  and  _501
REMARK  201  A    between atoms: _500  and  _503
REMARK  202  A    between atoms: _503  and  _504
REMARK  203  A    between atoms: _507  and  _509
REMARK  204  A    between atoms: _509  and  _510
REMARK  205  A    between atoms: _509  and  _512
REMARK  206  A    between atoms: _512  and  _513
REMARK  207  A    between atoms: _518  and  _520
REMARK  208  A    between atoms: _520  and  _521
REMARK  209  A    between atoms: _520  and  _523
REMARK  210  A    between atoms: _523  and  _524
REMARK  211  A    between atoms: _524  and  _525
REMARK  212  A    between atoms: _525  and  _526
REMARK  213  A    between atoms: _535  and  _537
REMARK  214  A    between atoms: _537  and  _538
REMARK  215  A    between atoms: _537  and  _540
REMARK  216  A    between atoms: _543  and  _545
REMARK  217  A    between atoms: _545  and  _546
REMARK  218  A    between atoms: _548  and  _550
REMARK  219  A    between atoms: _550  and  _551
REMARK  220  A    between atoms: _554  and  _556
REMARK  221  A    between atoms: _556  and  _557
REMARK  222  A    between atoms: _556  and  _559
REMARK                            x       y       z     vdW  Elec       q    Type
REMARK                         _______ _______ _______ _____ _____    ______ ____
ROOT
ATOM      1  CA  GLN A   4      33.052  10.165  19.282  0.00  0.00    +0.149 C 
ENDROOT
BRANCH   1   4
ATOM      2  C   GLY A   3      33.707  11.685  21.081  0.00  0.00    +0.243 C 
ATOM      3  O   GLY A   3      32.924  12.554  20.697  0.00  0.00    -0.273 OA
ATOM      4  N   GLN A   4      33.835  10.506  20.474  0.00  0.00    -0.297 N 
ATOM      5  H   GLN A   4      34.507   9.810  20.855  0.00  0.00    +0.150 HD
BRANCH   2   6
ATOM      6  CA  GLY A   3      34.582  11.943  22.299  0.00  0.00    +0.176 C 
BRANCH   6   9
ATOM      7  C   SER A   2      34.182  10.012  23.698  0.00  0.00    +0.243 C 
ATOM      8  O   SER A   2      32.964  10.211  23.692  0.00  0.00    -0.273 OA
ATOM      9  N   GLY A   3      35.044  10.775  23.029  0.00  0.00    -0.295 N 
ATOM     10  H   GLY A   3      36.055  10.533  23.029  0.00  0.00    +0.150 HD
BRANCH   7  11
ATOM     11  CA  SER A   2      34.756   8.821  24.457  0.00  0.00    +0.178 C 
BRANCH  11  13
ATOM     12  C   LYS A   1      35.568   7.601  22.529  0.00  0.00    +0.238 C 
ATOM     13  N   SER A   2      35.789   8.060  23.756  0.00  0.00    -0.295 N 
ATOM     14  H   SER A   2      36.701   7.877  24.220  0.00  0.00    +0.150 HD
ATOM     15  O   LYS A   1      34.524   7.828  21.920  0.00  0.00    -0.274 OA
BRANCH  12  16
ATOM     16  CA  LYS A   1      36.667   6.754  21.884  0.00  0.00    +0.145 C 
BRANCH  16  17
ATOM     17  N   LYS A   1      36.082   6.072  20.729  0.00  0.00    -0.238 NA
ATOM     18  H   LYS A   1      35.221   6.465  20.298  0.00  0.00    +0.142 HD
ENDBRANCH  16  17
BRANCH  16  19
ATOM     19  CB  LYS A   1      37.862   7.614  21.452  0.00  0.00    +0.026 C 
BRANCH  19  20
ATOM     20  CG  LYS A   1      37.590   8.585  20.307  0.00  0.00    -0.000 C 
BRANCH  20  21
ATOM     21  CD  LYS A   1      38.898   9.225  19.840  0.00  0.00    -0.024 C 
BRANCH  21  22
ATOM     22  CE  LYS A   1      38.682  10.240  18.731  0.00  0.00    -0.086 C 
BRANCH  22  23
ATOM     23  NZ  LYS A   1      39.982  10.825  18.277  0.00  0.00    +0.380 N 
ATOM     24  HZ1 LYS A   1      40.446  11.300  19.078  0.00  0.00    -0.089 HD
ATOM     25  HZ2 LYS A   1      40.596  10.066  17.919  0.00  0.00    -0.089 HD
ATOM     26  HZ3 LYS A   1      39.804  11.515  17.519  0.00  0.00    -0.089 HD
ENDBRANCH  22  23
ENDBRANCH  21  22
ENDBRANCH  20  21
ENDBRANCH  19  20
ENDBRANCH  16  19
ENDBRANCH  12  16
ENDBRANCH  11  13
BRANCH  11  27
ATOM     27  CB  SER A   2      35.264   9.266  25.839  0.00  0.00    +0.166 C 
BRANCH  27  28
ATOM     28  OG  SER A   2      36.388  10.115  25.730  0.00  0.00    -0.380 OA
ATOM     29  H   SER A   2      37.119   9.635  25.267  0.00  0.00    +0.211 HD
ENDBRANCH  27  28
ENDBRANCH  11  27
ENDBRANCH   7  11
ENDBRANCH   6   9
ENDBRANCH   2   6
ENDBRANCH   1   4
BRANCH   1  30
ATOM     30  C   GLN A   4      32.056   9.042  19.534  0.00  0.00    +0.241 C 
ATOM     31  N   GLY A   5      32.137   8.437  20.715  0.00  0.00    -0.295 N 
ATOM     32  H   GLY A   5      32.838   8.766  21.409  0.00  0.00    +0.150 HD
ATOM     33  O   GLN A   4      31.235   8.734  18.665  0.00  0.00    -0.273 OA
BRANCH  31  34
ATOM     34  CA  GLY A   5      31.266   7.327  21.055  0.00  0.00    +0.176 C 
BRANCH  34  35
ATOM     35  C   GLY A   5      31.922   6.013  20.657  0.00  0.00    +0.243 C 
ATOM     36  N   TYR A   6      31.395   4.903  21.173  0.00  0.00    -0.298 N 
ATOM     37  H   TYR A   6      30.579   4.991  21.812  0.00  0.00    +0.150 HD
ATOM     38  O   GLY A   5      32.896   6.012  19.899  0.00  0.00    -0.273 OA
BRANCH  36  39
ATOM     39  CA  TYR A   6      31.913   3.563  20.881  0.00  0.00    +0.141 C 
BRANCH  39  40
ATOM     40  C   TYR A   6      30.891   2.821  20.036  0.00  0.00    +0.227 C 
ATOM     41  O   TYR A   6      29.695   2.859  20.340  0.00  0.00    -0.286 OA
ENDBRANCH  39  40
BRANCH  39  42
ATOM     42  CB  TYR A   6      32.164   2.805  22.188  0.00  0.00    +0.054 C 
BRANCH  42  43
ATOM     43  CG  TYR A   6      33.380   3.312  22.934  0.00  0.00    -0.020 A 
ATOM     44  CD2 TYR A   6      33.306   4.430  23.756  0.00  0.00    -0.001 A 
ATOM     45  CE2 TYR A   6      34.427   4.918  24.406  0.00  0.00    +0.036 A 
ATOM     46  CZ  TYR A   6      35.646   4.284  24.234  0.00  0.00    +0.134 A 
ATOM     47  CE1 TYR A   6      35.738   3.180  23.421  0.00  0.00    +0.036 A 
ATOM     48  CD1 TYR A   6      34.608   2.697  22.780  0.00  0.00    -0.001 A 
BRANCH  46  49
ATOM     49  OH  TYR A   6      36.772   4.734  24.899  0.00  0.00    -0.506 OA
ATOM     50  HH  TYR A   6      36.539   5.531  25.438  0.00  0.00    +0.292 HD
ENDBRANCH  46  49
ENDBRANCH  42  43
ENDBRANCH  39  42
ENDBRANCH  36  39
ENDBRANCH  34  35
ENDBRANCH  31  34
ENDBRANCH   1  30
BRANCH   1  51
ATOM     51  CB  GLN A   4      33.965   9.702  18.148  0.00  0.00    +0.039 C 
BRANCH  51  52
ATOM     52  CG  GLN A   4      35.060  10.658  17.727  0.00  0.00    +0.087 C 
BRANCH  52  53
ATOM     53  CD  GLN A   4      35.864  10.100  16.557  0.00  0.00    +0.219 C 
ATOM     54  OE1 GLN A   4      36.293   8.939  16.575  0.00  0.00    -0.275 OA
ATOM     55  NE2 GLN A   4      36.072  10.923  15.536  0.00  0.00    -0.329 N 
ATOM     56 HE21 GLN A   4      35.693  11.891  15.563  0.00  0.00    +0.145 HD
ATOM     57 HE22 GLN A   4      36.614  10.600  14.709  0.00  0.00    +0.145 HD
ENDBRANCH  52  53
ENDBRANCH  51  52
ENDBRANCH   1  51
TORSDOF 25
REMARK  Name = ../refined-set-2016/4h3f/4h3f_pocket.pdb
REMARK  222 active torsions:
REMARK  status: ('A' for Active; 'I' for Inactive)
REMARK    1  A    between atoms: _1  and  _3
REMARK    2  A    between atoms: _3  and  _4
REMARK    3  A    between atoms: _3  and  _6
REMARK    4  A    between atoms: _6  and  _7
REMARK    5  A    between atoms: _7  and  _8
REMARK    6  A    between atoms: _8  and  _9
REMARK    7  A    between atoms: _9  and  _10
REMARK    8  A    between atoms: _14  and  _16
REMARK    9  A    between atoms: _16  and  _17
REMARK   10  A    between atoms: _16  and  _19
REMARK   11  A    between atoms: _19  and  _20
REMARK   12  A    between atoms: _22  and  _24
REMARK   13  A    between atoms: _24  and  _25
REMARK   14  A    between atoms: _27  and  _29
REMARK   15  A    between atoms: _29  and  _30
REMARK   16  A    between atoms: _29  and  _32
REMARK   17  A    between atoms: _32  and  _33
REMARK   18  A    between atoms: _33  and  _34
REMARK   19  A    between atoms: _39  and  _41
REMARK   20  A    between atoms: _41  and  _42
REMARK   21  A    between atoms: _44  and  _46
REMARK   22  A    between atoms: _46  and  _47
REMARK   23  A    between atoms: _46  and  _49
REMARK   24  A    between atoms: _49  and  _50
REMARK   25  A    between atoms: _55  and  _56
REMARK   26  A    between atoms: _58  and  _60
REMARK   27  A    between atoms: _60  and  _61
REMARK   28  A    between atoms: _60  and  _63
REMARK   29  A    between atoms: _63  and  _64
REMARK   30  A    between atoms: _67  and  _69
REMARK   31  A    between atoms: _69  and  _70
REMARK   32  A    between atoms: _69  and  _72
REMARK   33  A    between atoms: _75  and  _77
REMARK   34  A    between atoms: _77  and  _78
REMARK   35  A    between atoms: _77  and  _80
REMARK   36  A    between atoms: _80  and  _81
REMARK   37  A    between atoms: _84  and  _86
REMARK   38  A    between atoms: _86  and  _87
REMARK   39  A    between atoms: _86  and  _89
REMARK   40  A    between atoms: _89  and  _90
REMARK   41  A    between atoms: _93  and  _95
REMARK   42  A    between atoms: _95  and  _96
REMARK   43  A    between atoms: _98  and  _100
REMARK   44  A    between atoms: _100  and  _101
REMARK   45  A    between atoms: _100  and  _103
REMARK   46  A    between atoms: _103  and  _104
REMARK   47  A    between atoms: _106  and  _108
REMARK   48  A    between atoms: _108  and  _109
REMARK   49  A    between atoms: _108  and  _111
REMARK   50  A    between atoms: _111  and  _112
REMARK   51  A    between atoms: _114  and  _116
REMARK   52  A    between atoms: _116  and  _117
REMARK   53  A    between atoms: _116  and  _119
REMARK   54  A    between atoms: _119  and  _120
REMARK   55  A    between atoms: _125  and  _127
REMARK   56  A    between atoms: _127  and  _128
REMARK   57  A    between atoms: _127  and  _130
REMARK   58  A    between atoms: _130  and  _131
REMARK   59  A    between atoms: _137  and  _139
REMARK   60  A    between atoms: _139  and  _140
REMARK   61  A    between atoms: _143  and  _145
REMARK   62  A    between atoms: _145  and  _146
REMARK   63  A    between atoms: _145  and  _148
REMARK   64  A    between atoms: _151  and  _153
REMARK   65  A    between atoms: _153  and  _154
REMARK   66  A    between atoms: _153  and  _156
REMARK   67  A    between atoms: _159  and  _161
REMARK   68  A    between atoms: _161  and  _162
REMARK   69  A    between atoms: _161  and  _164
REMARK   70  A    between atoms: _164  and  _165
REMARK   71  A    between atoms: _170  and  _171
REMARK   72  A    between atoms: _173  and  _175
REMARK   73  A    between atoms: _175  and  _176
REMARK   74  A    between atoms: _175  and  _178
REMARK   75  A    between atoms: _182  and  _183
REMARK   76  A    between atoms: _188  and  _190
REMARK   77  A    between atoms: _190  and  _191
REMARK   78  A    between atoms: _190  and  _193
REMARK   79  A    between atoms: _193  and  _194
REMARK   80  A    between atoms: _199  and  _200
REMARK   81  A    between atoms: _202  and  _204
REMARK   82  A    between atoms: _204  and  _205
REMARK   83  A    between atoms: _204  and  _207
REMARK   84  A    between atoms: _207  and  _208
REMARK   85  A    between atoms: _211  and  _213
REMARK   86  A    between atoms: _213  and  _214
REMARK   87  A    between atoms: _213  and  _216
REMARK   88  A    between atoms: _216  and  _217
REMARK   89  A    between atoms: _217  and  _218
REMARK   90  A    between atoms: _223  and  _225
REMARK   91  A    between atoms: _225  and  _226
REMARK   92  A    between atoms: _228  and  _230
REMARK   93  A    between atoms: _230  and  _231
REMARK   94  A    between atoms: _230  and  _233
REMARK   95  A    between atoms: _233  and  _234
REMARK   96  A    between atoms: _234  and  _235
REMARK   97  A    between atoms: _235  and  _236
REMARK   98  A    between atoms: _236  and  _237
REMARK   99  A    between atoms: _241  and  _243
REMARK  100  A    between atoms: _243  and  _244
REMARK  101  A    between atoms: _243  and  _246
REMARK  102  A    between atoms: _246  and  _247
REMARK  103  A    between atoms: _257  and  _259
REMARK  104  A    between atoms: _259  and  _260
REMARK  105  A    between atoms: _263  and  _265
REMARK  106  A    between atoms: _265  and  _266
REMARK  107  A    between atoms: _265  and  _268
REMARK  108  A    between atoms: _268  and  _269
REMARK  109  A    between atoms: _272  and  _274
REMARK  110  A    between atoms: _274  and  _275
REMARK  111  A    between atoms: _274  and  _277
REMARK  112  A    between atoms: _277  and  _278
REMARK  113  A    between atoms: _281  and  _283
REMARK  114  A    between atoms: _283  and  _284
REMARK  115  A    between atoms: _283  and  _286
REMARK  116  A    between atoms: _286  and  _287
REMARK  117  A    between atoms: _287  and  _288
REMARK  118  A    between atoms: _288  and  _289
REMARK  119  A    between atoms: _289  and  _290
REMARK  120  A    between atoms: _294  and  _296
REMARK  121  A    between atoms: _296  and  _297
REMARK  122  A    between atoms: _296  and  _299
REMARK  123  A    between atoms: _299  and  _300
REMARK  124  A    between atoms: _306  and  _308
REMARK  125  A    between atoms: _308  and  _309
REMARK  126  A    between atoms: _308  and  _311
REMARK  127  A    between atoms: _311  and  _312
REMARK  128  A    between atoms: _318  and  _320
REMARK  129  A    between atoms: _320  and  _321
REMARK  130  A    between atoms: _320  and  _323
REMARK  131  A    between atoms: _323  and  _324
REMARK  132  A    between atoms: _327  and  _329
REMARK  133  A    between atoms: _329  and  _330
REMARK  134  A    between atoms: _329  and  _332
REMARK  135  A    between atoms: _332  and  _333
REMARK  136  A    between atoms: _335  and  _337
REMARK  137  A    between atoms: _337  and  _338
REMARK  138  A    between atoms: _337  and  _340
REMARK  139  A    between atoms: _340  and  _341
REMARK  140  A    between atoms: _351  and  _353
REMARK  141  A    between atoms: _353  and  _354
REMARK  142  A    between atoms: _356  and  _358
REMARK  143  A    between atoms: _358  and  _359
REMARK  144  A    between atoms: _358  and  _361
REMARK  145  A    between atoms: _361  and  _362
REMARK  146  A    between atoms: _365  and  _367
REMARK  147  A    between atoms: _367  and  _368
REMARK  148  A    between atoms: _367  and  _370
REMARK  149  A    between atoms: _370  and  _371
REMARK  150  A    between atoms: _374  and  _376
REMARK  151  A    between atoms: _376  and  _377
REMARK  152  A    between atoms: _379  and  _381
REMARK  153  A    between atoms: _381  and  _382
REMARK  154  A    between atoms: _381  and  _384
REMARK  155  A    between atoms: _384  and  _385
REMARK  156  A    between atoms: _388  and  _390
REMARK  157  A    between atoms: _390  and  _391
REMARK  158  A    between atoms: _390  and  _393
REMARK  159  A    between atoms: _393  and  _394
REMARK  160  A    between atoms: _397  and  _399
REMARK  161  A    between atoms: _399  and  _400
REMARK  162  A    between atoms: _403  and  _405
REMARK  163  A    between atoms: _405  and  _406
REMARK  164  A    between atoms: _405  and  _408
REMARK  165  A    between atoms: _408  and  _409
REMARK  166  A    between atoms: _409  and  _410
REMARK  167  A    between atoms: _410  and  _411
REMARK  168  A    between atoms: _421  and  _422
REMARK  169  A    between atoms: _427  and  _429
REMARK  170  A    between atoms: _429  and  _430
REMARK  171  A    between atoms: _429  and  _432
REMARK  172  A    between atoms: _432  and  _433
REMARK  173  A    between atoms: _436  and  _438
REMARK  174  A    between atoms: _438  and  _439
REMARK  175  A    between atoms: _438  and  _441
REMARK  176  A    between atoms: _441  and  _442
REMARK  177  A    between atoms: _447  and  _448
REMARK  178  A    between atoms: _450  and  _452
REMARK  179  A    between atoms: _452  and  _453
REMARK  180  A    between atoms: _452  and  _455
REMARK  181  A    between atoms: _455  and  _456
REMARK  182  A    between atoms: _459  and  _461
REMARK  183  A    between atoms: _461  and  _462
REMARK  184  A    between atoms: _461  and  _464
REMARK  185  A    between atoms: _467  and  _469
REMARK  186  A    between atoms: _469  and  _470
REMARK  187  A    between atoms: _469  and  _472
REMARK  188  A    between atoms: _472  and  _473
REMARK  189  A    between atoms: _476  and  _478
REMARK  190  A    between atoms: _478  and  _479
REMARK  191  A    between atoms: _478  and  _481
REMARK  192  A    between atoms: _481  and  _482
REMARK  193  A    between atoms: _484  and  _486
REMARK  194  A    between atoms: _486  and  _487
REMARK  195  A    between atoms: _489  and  _491
REMARK  196  A    between atoms: _491  and  _492
REMARK  197  A    between atoms: _491  and  _494
REMARK  198  A    between atoms: _494  and  _495
REMARK  199  A    between atoms: _498  and  _500
REMARK  200  A    between atoms: _500  and  _501
REMARK  201  A    between atoms: _500  and  _503
REMARK  202  A    between atoms: _503  and  _504
REMARK  203  A    between atoms: _507  and  _509
REMARK  204  A    between atoms: _509  and  _510
REMARK  205  A    between atoms: _509  and  _512
REMARK  206  A    between atoms: _512  and  _513
REMARK  207  A    between atoms: _518  and  _520
REMARK  208  A    between atoms: _520  and  _521
REMARK  209  A    between atoms: _520  and  _523
REMARK  210  A    between atoms: _523  and  _524
REMARK  211  A    between atoms: _524  and  _525
REMARK  212  A    between atoms: _525  and  _526
REMARK  213  A    between atoms: _535  and  _537
REMARK  214  A    between atoms: _537  and  _538
REMARK  215  A    between atoms: _537  and  _540
REMARK  216  A    between atoms: _543  and  _545
REMARK  217  A    between atoms: _545  and  _546
REMARK  218  A    between atoms: _548  and  _550
REMARK  219  A    between atoms: _550  and  _551
REMARK  220  A    between atoms: _554  and  _556
REMARK  221  A    between atoms: _556  and  _557
REMARK  222  A    between atoms: _556  and  _559
REMARK                            x       y       z     vdW  Elec       q    Type
REMARK                         _______ _______ _______ _____ _____    ______ ____
ROOT
ATOM      1  C   SER A   6      17.698   4.467  23.985  0.00  0.00    +0.243 C 
ATOM      2  O   SER A   6      18.353   3.500  24.381  0.00  0.00    -0.273 OA
ATOM      3  N   SER A   7      16.549   4.347  23.318  0.00  0.00    -0.295 N 
ATOM      4  H   SER A   7      16.078   5.196  22.945  0.00  0.00    +0.150 HD
ENDROOT
BRANCH   3   5
ATOM      5  CA  SER A   7      15.949   3.035  23.108  0.00  0.00    +0.178 C 
BRANCH   5   6
ATOM      6  C   SER A   7      15.497   2.710  21.695  0.00  0.00    +0.243 C 
ATOM      7  O   SER A   7      14.700   1.786  21.493  0.00  0.00    -0.273 OA
ATOM      8  N   ASN A   8      15.996   3.468  20.730  0.00  0.00    -0.297 N 
ATOM      9  H   ASN A   8      16.634   4.251  20.976  0.00  0.00    +0.150 HD
BRANCH   8  10
ATOM     10  CA  ASN A   8      15.669   3.227  19.329  0.00  0.00    +0.158 C 
BRANCH  10  11
ATOM     11  C   ASN A   8      16.884   2.715  18.582  0.00  0.00    +0.241 C 
ATOM     12  O   ASN A   8      18.016   3.066  18.914  0.00  0.00    -0.273 OA
ATOM     13  N   PHE A   9      16.638   1.876  17.579  0.00  0.00    -0.297 N 
ATOM     14  H   PHE A   9      15.664   1.552  17.415  0.00  0.00    +0.150 HD
BRANCH  13  15
ATOM     15  CA  PHE A   9      17.703   1.401  16.705  0.00  0.00    +0.153 C 
BRANCH  15  16
ATOM     16  C   PHE A   9      17.422   2.273  15.476  0.00  0.00    +0.241 C 
ATOM     17  N   ALA A  10      18.319   3.212  15.199  0.00  0.00    -0.297 N 
ATOM     18  H   ALA A  10      19.169   3.296  15.793  0.00  0.00    +0.150 HD
ATOM     19  O   PHE A   9      16.385   2.125  14.812  0.00  0.00    -0.273 OA
BRANCH  17  20
ATOM     20  CA  ALA A  10      18.136   4.127  14.079  0.00  0.00    +0.149 C 
ATOM     21  CB  ALA A  10      17.787   5.524  14.595  0.00  0.00    +0.031 C 
BRANCH  20  22
ATOM     22  C   ALA A  10      19.400   4.183  13.252  0.00  0.00    +0.241 C 
ATOM     23  O   ALA A  10      20.499   4.328  13.794  0.00  0.00    -0.273 OA
ATOM     24  N   VAL A  11      19.242   4.098  11.936  0.00  0.00    -0.298 N 
ATOM     25  H   VAL A  11      18.286   4.023  11.533  0.00  0.00    +0.150 HD
BRANCH  24  26
ATOM     26  CA  VAL A  11      20.396   4.109  11.060  0.00  0.00    +0.137 C 
BRANCH  26  27
ATOM     27  CB  VAL A  11      20.674   2.688  10.518  0.00  0.00    +0.026 C 
ATOM     28  CG2 VAL A  11      20.798   1.708  11.677  0.00  0.00    +0.002 C 
ATOM     29  CG1 VAL A  11      19.558   2.255   9.590  0.00  0.00    +0.002 C 
ENDBRANCH  26  27
BRANCH  26  30
ATOM     30  C   VAL A  11      20.225   5.044   9.872  0.00  0.00    +0.227 C 
ATOM     31  O   VAL A  11      19.105   5.258   9.406  0.00  0.00    -0.286 OA
ENDBRANCH  26  30
ENDBRANCH  24  26
ENDBRANCH  20  22
ENDBRANCH  17  20
ENDBRANCH  15  16
BRANCH  15  32
ATOM     32  CB  PHE A   9      17.523  -0.080  16.363  0.00  0.00    +0.055 C 
BRANCH  32  33
ATOM     33  CG  PHE A   9      18.547  -0.610  15.396  0.00  0.00    -0.020 A 
ATOM     34  CD2 PHE A   9      19.836  -0.098  15.373  0.00  0.00    -0.004 A 
ATOM     35  CE2 PHE A   9      20.788  -0.595  14.486  0.00  0.00    -0.000 A 
ATOM     36  CZ  PHE A   9      20.450  -1.611  13.613  0.00  0.00    -0.000 A 
ATOM     37  CE1 PHE A   9      19.162  -2.133  13.624  0.00  0.00    -0.000 A 
ATOM     38  CD1 PHE A   9      18.218  -1.631  14.514  0.00  0.00    -0.004 A 
ENDBRANCH  32  33
ENDBRANCH  15  32
ENDBRANCH  13  15
ENDBRANCH  10  11
BRANCH  10  39
ATOM     39  CB  ASN A   8      15.256   4.507  18.620  0.00  0.00    +0.114 C 
BRANCH  39  40
ATOM     40  CG  ASN A   8      13.858   4.924  18.940  0.00  0.00    +0.222 C 
ATOM     41  OD1 ASN A   8      13.596   5.461  20.013  0.00  0.00    -0.275 OA
ATOM     42  ND2 ASN A   8      12.936   4.674  18.009  0.00  0.00    -0.329 N 
ATOM     43 HD21 ASN A   8      11.944   4.936  18.176  0.00  0.00    +0.145 HD
ATOM     44 HD22 ASN A   8      13.209   4.217  17.116  0.00  0.00    +0.145 HD
ENDBRANCH  39  40
ENDBRANCH  10  39
ENDBRANCH   8  10
ENDBRANCH   5   6
BRANCH   5  45
ATOM     45  CB  SER A   7      14.770   2.883  24.064  0.00  0.00    +0.166 C 
BRANCH  45  46
ATOM     46  OG  SER A   7      15.190   3.153  25.390  0.00  0.00    -0.380 OA
ATOM     47  H   SER A   7      14.421   3.053  26.005  0.00  0.00    +0.211 HD
ENDBRANCH  45  46
ENDBRANCH   5  45
ENDBRANCH   3   5
BRANCH   1  48
ATOM     48  CA  SER A   6      18.204   5.873  24.242  0.00  0.00    +0.178 C 
BRANCH  48  51
ATOM     49  C   GLY A   5      19.698   6.717  25.963  0.00  0.00    +0.243 C 
ATOM     50  O   GLY A   5      19.075   7.780  25.996  0.00  0.00    -0.273 OA
ATOM     51  N   SER A   6      19.380   5.747  25.113  0.00  0.00    -0.295 N 
ATOM     52  H   SER A   6      19.969   4.891  25.064  0.00  0.00    +0.150 HD
BRANCH  49  53
ATOM     53  CA  GLY A   5      20.905   6.486  26.873  0.00  0.00    +0.176 C 
BRANCH  53  56
ATOM     54  C   THR A   4      21.580   4.172  27.290  0.00  0.00    +0.243 C 
ATOM     55  O   THR A   4      20.806   4.043  28.242  0.00  0.00    -0.273 OA
ATOM     56  N   GLY A   5      21.696   5.296  26.581  0.00  0.00    -0.295 N 
ATOM     57  H   GLY A   5      22.374   5.325  25.793  0.00  0.00    +0.150 HD
BRANCH  54  58
ATOM     58  CA  THR A   4      22.468   3.004  26.853  0.00  0.00    +0.176 C 
BRANCH  58  60
ATOM     59  C   ASP A   3      22.913   3.461  24.529  0.00  0.00    +0.241 C 
ATOM     60  N   THR A   4      23.374   3.401  25.777  0.00  0.00    -0.295 N 
ATOM     61  H   THR A   4      24.366   3.634  25.983  0.00  0.00    +0.150 HD
ATOM     62  O   ASP A   3      21.744   3.193  24.252  0.00  0.00    -0.273 OA
BRANCH  59  63
ATOM     63  CA  ASP A   3      23.890   3.893  23.435  0.00  0.00    +0.160 C 
BRANCH  63  66
ATOM     64  C   VAL A   2      25.785   2.677  22.476  0.00  0.00    +0.241 C 
ATOM     65  O   VAL A   2      26.613   3.336  23.091  0.00  0.00    -0.273 OA
ATOM     66  N   ASP A   3      24.469   2.817  22.629  0.00  0.00    -0.297 N 
ATOM     67  H   ASP A   3      23.833   2.140  22.161  0.00  0.00    +0.150 HD
BRANCH  64  68
ATOM     68  CA  VAL A   2      26.236   1.603  21.502  0.00  0.00    +0.148 C 
BRANCH  68  70
ATOM     69  C   LEU A   1      26.165   2.773  19.354  0.00  0.00    +0.238 C 
ATOM     70  N   VAL A   2      26.865   2.307  20.391  0.00  0.00    -0.297 N 
ATOM     71  H   VAL A   2      27.895   2.451  20.407  0.00  0.00    +0.150 HD
ATOM     72  O   LEU A   1      24.947   2.659  19.263  0.00  0.00    -0.274 OA
BRANCH  69  73
ATOM     73  CA  LEU A   1      26.949   3.501  18.271  0.00  0.00    +0.145 C 
BRANCH  73  74
ATOM     74  N   LEU A   1      26.629   2.976  16.944  0.00  0.00    -0.238 NA
ATOM     75  H   LEU A   1      26.168   3.605  16.256  0.00  0.00    +0.142 HD
ENDBRANCH  73  74
BRANCH  73  76
ATOM     76  CB  LEU A   1      26.607   5.002  18.336  0.00  0.00    +0.026 C 
BRANCH  76  77
ATOM     77  CG  LEU A   1      26.807   5.665  19.706  0.00  0.00    +0.002 C 
ATOM     78  CD2 LEU A   1      28.274   6.014  19.868  0.00  0.00    +0.000 C 
ATOM     79  CD1 LEU A   1      25.959   6.921  19.818  0.00  0.00    +0.000 C 
ENDBRANCH  76  77
ENDBRANCH  73  76
ENDBRANCH  69  73
ENDBRANCH  68  70
BRANCH  68  80
ATOM     80  CB  VAL A   2      27.236   0.641  22.156  0.00  0.00    +0.027 C 
ATOM     81  CG2 VAL A   2      26.645   0.052  23.416  0.00  0.00    +0.002 C 
ATOM     82  CG1 VAL A   2      27.596  -0.460  21.149  0.00  0.00    +0.002 C 
ENDBRANCH  68  80
ENDBRANCH  64  68
ENDBRANCH  63  66
BRANCH  63  83
ATOM     83  CB  ASP A   3      23.212   4.859  22.446  0.00  0.00    +0.143 C 
BRANCH  83  84
ATOM     84  CG  ASP A   3      22.675   6.117  23.098  0.00  0.00    +0.367 C 
ATOM     85  OD2 ASP A   3      23.021   6.416  24.243  0.00  0.00    -0.246 OA
ATOM     86  OD1 ASP A   3      21.912   6.810  22.429  0.00  0.00    -0.246 OA
ENDBRANCH  83  84
ENDBRANCH  63  83
ENDBRANCH  59  63
ENDBRANCH  58  60
BRANCH  58  87
ATOM     87  CB  THR A   4      23.232   2.455  28.092  0.00  0.00    +0.137 C 
ATOM     88  CG2 THR A   4      24.071   1.252  27.705  0.00  0.00    +0.034 C 
BRANCH  87  89
ATOM     89  OG1 THR A   4      24.073   3.478  28.646  0.00  0.00    -0.382 OA
ATOM     90  HG1 THR A   4      23.516   4.248  28.922  0.00  0.00    +0.210 HD
ENDBRANCH  87  89
ENDBRANCH  58  87
ENDBRANCH  54  58
ENDBRANCH  53  56
ENDBRANCH  49  53
ENDBRANCH  48  51
BRANCH  48  91
ATOM     91  CB  SER A   6      18.541   6.580  22.928  0.00  0.00    +0.166 C 
BRANCH  91  92
ATOM     92  OG  SER A   6      19.449   5.829  22.158  0.00  0.00    -0.380 OA
ATOM     93  H   SER A   6      20.287   5.701  22.670  0.00  0.00    +0.211 HD
ENDBRANCH  91  92
ENDBRANCH  48  91
ENDBRANCH   1  48
TORSDOF 38
REMARK  Name = ../refined-set-2016/4h3f/4h3f_pocket.pdb
REMARK  222 active torsions:
REMARK  status: ('A' for Active; 'I' for Inactive)
REMARK    1  A    between atoms: _1  and  _3
REMARK    2  A    between atoms: _3  and  _4
REMARK    3  A    between atoms: _3  and  _6
REMARK    4  A    between atoms: _6  and  _7
REMARK    5  A    between atoms: _7  and  _8
REMARK    6  A    between atoms: _8  and  _9
REMARK    7  A    between atoms: _9  and  _10
REMARK    8  A    between atoms: _14  and  _16
REMARK    9  A    between atoms: _16  and  _17
REMARK   10  A    between atoms: _16  and  _19
REMARK   11  A    between atoms: _19  and  _20
REMARK   12  A    between atoms: _22  and  _24
REMARK   13  A    between atoms: _24  and  _25
REMARK   14  A    between atoms: _27  and  _29
REMARK   15  A    between atoms: _29  and  _30
REMARK   16  A    between atoms: _29  and  _32
REMARK   17  A    between atoms: _32  and  _33
REMARK   18  A    between atoms: _33  and  _34
REMARK   19  A    between atoms: _39  and  _41
REMARK   20  A    between atoms: _41  and  _42
REMARK   21  A    between atoms: _44  and  _46
REMARK   22  A    between atoms: _46  and  _47
REMARK   23  A    between atoms: _46  and  _49
REMARK   24  A    between atoms: _49  and  _50
REMARK   25  A    between atoms: _55  and  _56
REMARK   26  A    between atoms: _58  and  _60
REMARK   27  A    between atoms: _60  and  _61
REMARK   28  A    between atoms: _60  and  _63
REMARK   29  A    between atoms: _63  and  _64
REMARK   30  A    between atoms: _67  and  _69
REMARK   31  A    between atoms: _69  and  _70
REMARK   32  A    between atoms: _69  and  _72
REMARK   33  A    between atoms: _75  and  _77
REMARK   34  A    between atoms: _77  and  _78
REMARK   35  A    between atoms: _77  and  _80
REMARK   36  A    between atoms: _80  and  _81
REMARK   37  A    between atoms: _84  and  _86
REMARK   38  A    between atoms: _86  and  _87
REMARK   39  A    between atoms: _86  and  _89
REMARK   40  A    between atoms: _89  and  _90
REMARK   41  A    between atoms: _93  and  _95
REMARK   42  A    between atoms: _95  and  _96
REMARK   43  A    between atoms: _98  and  _100
REMARK   44  A    between atoms: _100  and  _101
REMARK   45  A    between atoms: _100  and  _103
REMARK   46  A    between atoms: _103  and  _104
REMARK   47  A    between atoms: _106  and  _108
REMARK   48  A    between atoms: _108  and  _109
REMARK   49  A    between atoms: _108  and  _111
REMARK   50  A    between atoms: _111  and  _112
REMARK   51  A    between atoms: _114  and  _116
REMARK   52  A    between atoms: _116  and  _117
REMARK   53  A    between atoms: _116  and  _119
REMARK   54  A    between atoms: _119  and  _120
REMARK   55  A    between atoms: _125  and  _127
REMARK   56  A    between atoms: _127  and  _128
REMARK   57  A    between atoms: _127  and  _130
REMARK   58  A    between atoms: _130  and  _131
REMARK   59  A    between atoms: _137  and  _139
REMARK   60  A    between atoms: _139  and  _140
REMARK   61  A    between atoms: _143  and  _145
REMARK   62  A    between atoms: _145  and  _146
REMARK   63  A    between atoms: _145  and  _148
REMARK   64  A    between atoms: _151  and  _153
REMARK   65  A    between atoms: _153  and  _154
REMARK   66  A    between atoms: _153  and  _156
REMARK   67  A    between atoms: _159  and  _161
REMARK   68  A    between atoms: _161  and  _162
REMARK   69  A    between atoms: _161  and  _164
REMARK   70  A    between atoms: _164  and  _165
REMARK   71  A    between atoms: _170  and  _171
REMARK   72  A    between atoms: _173  and  _175
REMARK   73  A    between atoms: _175  and  _176
REMARK   74  A    between atoms: _175  and  _178
REMARK   75  A    between atoms: _182  and  _183
REMARK   76  A    between atoms: _188  and  _190
REMARK   77  A    between atoms: _190  and  _191
REMARK   78  A    between atoms: _190  and  _193
REMARK   79  A    between atoms: _193  and  _194
REMARK   80  A    between atoms: _199  and  _200
REMARK   81  A    between atoms: _202  and  _204
REMARK   82  A    between atoms: _204  and  _205
REMARK   83  A    between atoms: _204  and  _207
REMARK   84  A    between atoms: _207  and  _208
REMARK   85  A    between atoms: _211  and  _213
REMARK   86  A    between atoms: _213  and  _214
REMARK   87  A    between atoms: _213  and  _216
REMARK   88  A    between atoms: _216  and  _217
REMARK   89  A    between atoms: _217  and  _218
REMARK   90  A    between atoms: _223  and  _225
REMARK   91  A    between atoms: _225  and  _226
REMARK   92  A    between atoms: _228  and  _230
REMARK   93  A    between atoms: _230  and  _231
REMARK   94  A    between atoms: _230  and  _233
REMARK   95  A    between atoms: _233  and  _234
REMARK   96  A    between atoms: _234  and  _235
REMARK   97  A    between atoms: _235  and  _236
REMARK   98  A    between atoms: _236  and  _237
REMARK   99  A    between atoms: _241  and  _243
REMARK  100  A    between atoms: _243  and  _244
REMARK  101  A    between atoms: _243  and  _246
REMARK  102  A    between atoms: _246  and  _247
REMARK  103  A    between atoms: _257  and  _259
REMARK  104  A    between atoms: _259  and  _260
REMARK  105  A    between atoms: _263  and  _265
REMARK  106  A    between atoms: _265  and  _266
REMARK  107  A    between atoms: _265  and  _268
REMARK  108  A    between atoms: _268  and  _269
REMARK  109  A    between atoms: _272  and  _274
REMARK  110  A    between atoms: _274  and  _275
REMARK  111  A    between atoms: _274  and  _277
REMARK  112  A    between atoms: _277  and  _278
REMARK  113  A    between atoms: _281  and  _283
REMARK  114  A    between atoms: _283  and  _284
REMARK  115  A    between atoms: _283  and  _286
REMARK  116  A    between atoms: _286  and  _287
REMARK  117  A    between atoms: _287  and  _288
REMARK  118  A    between atoms: _288  and  _289
REMARK  119  A    between atoms: _289  and  _290
REMARK  120  A    between atoms: _294  and  _296
REMARK  121  A    between atoms: _296  and  _297
REMARK  122  A    between atoms: _296  and  _299
REMARK  123  A    between atoms: _299  and  _300
REMARK  124  A    between atoms: _306  and  _308
REMARK  125  A    between atoms: _308  and  _309
REMARK  126  A    between atoms: _308  and  _311
REMARK  127  A    between atoms: _311  and  _312
REMARK  128  A    between atoms: _318  and  _320
REMARK  129  A    between atoms: _320  and  _321
REMARK  130  A    between atoms: _320  and  _323
REMARK  131  A    between atoms: _323  and  _324
REMARK  132  A    between atoms: _327  and  _329
REMARK  133  A    between atoms: _329  and  _330
REMARK  134  A    between atoms: _329  and  _332
REMARK  135  A    between atoms: _332  and  _333
REMARK  136  A    between atoms: _335  and  _337
REMARK  137  A    between atoms: _337  and  _338
REMARK  138  A    between atoms: _337  and  _340
REMARK  139  A    between atoms: _340  and  _341
REMARK  140  A    between atoms: _351  and  _353
REMARK  141  A    between atoms: _353  and  _354
REMARK  142  A    between atoms: _356  and  _358
REMARK  143  A    between atoms: _358  and  _359
REMARK  144  A    between atoms: _358  and  _361
REMARK  145  A    between atoms: _361  and  _362
REMARK  146  A    between atoms: _365  and  _367
REMARK  147  A    between atoms: _367  and  _368
REMARK  148  A    between atoms: _367  and  _370
REMARK  149  A    between atoms: _370  and  _371
REMARK  150  A    between atoms: _374  and  _376
REMARK  151  A    between atoms: _376  and  _377
REMARK  152  A    between atoms: _379  and  _381
REMARK  153  A    between atoms: _381  and  _382
REMARK  154  A    between atoms: _381  and  _384
REMARK  155  A    between atoms: _384  and  _385
REMARK  156  A    between atoms: _388  and  _390
REMARK  157  A    between atoms: _390  and  _391
REMARK  158  A    between atoms: _390  and  _393
REMARK  159  A    between atoms: _393  and  _394
REMARK  160  A    between atoms: _397  and  _399
REMARK  161  A    between atoms: _399  and  _400
REMARK  162  A    between atoms: _403  and  _405
REMARK  163  A    between atoms: _405  and  _406
REMARK  164  A    between atoms: _405  and  _408
REMARK  165  A    between atoms: _408  and  _409
REMARK  166  A    between atoms: _409  and  _410
REMARK  167  A    between atoms: _410  and  _411
REMARK  168  A    between atoms: _421  and  _422
REMARK  169  A    between atoms: _427  and  _429
REMARK  170  A    between atoms: _429  and  _430
REMARK  171  A    between atoms: _429  and  _432
REMARK  172  A    between atoms: _432  and  _433
REMARK  173  A    between atoms: _436  and  _438
REMARK  174  A    between atoms: _438  and  _439
REMARK  175  A    between atoms: _438  and  _441
REMARK  176  A    between atoms: _441  and  _442
REMARK  177  A    between atoms: _447  and  _448
REMARK  178  A    between atoms: _450  and  _452
REMARK  179  A    between atoms: _452  and  _453
REMARK  180  A    between atoms: _452  and  _455
REMARK  181  A    between atoms: _455  and  _456
REMARK  182  A    between atoms: _459  and  _461
REMARK  183  A    between atoms: _461  and  _462
REMARK  184  A    between atoms: _461  and  _464
REMARK  185  A    between atoms: _467  and  _469
REMARK  186  A    between atoms: _469  and  _470
REMARK  187  A    between atoms: _469  and  _472
REMARK  188  A    between atoms: _472  and  _473
REMARK  189  A    between atoms: _476  and  _478
REMARK  190  A    between atoms: _478  and  _479
REMARK  191  A    between atoms: _478  and  _481
REMARK  192  A    between atoms: _481  and  _482
REMARK  193  A    between atoms: _484  and  _486
REMARK  194  A    between atoms: _486  and  _487
REMARK  195  A    between atoms: _489  and  _491
REMARK  196  A    between atoms: _491  and  _492
REMARK  197  A    between atoms: _491  and  _494
REMARK  198  A    between atoms: _494  and  _495
REMARK  199  A    between atoms: _498  and  _500
REMARK  200  A    between atoms: _500  and  _501
REMARK  201  A    between atoms: _500  and  _503
REMARK  202  A    between atoms: _503  and  _504
REMARK  203  A    between atoms: _507  and  _509
REMARK  204  A    between atoms: _509  and  _510
REMARK  205  A    between atoms: _509  and  _512
REMARK  206  A    between atoms: _512  and  _513
REMARK  207  A    between atoms: _518  and  _520
REMARK  208  A    between atoms: _520  and  _521
REMARK  209  A    between atoms: _520  and  _523
REMARK  210  A    between atoms: _523  and  _524
REMARK  211  A    between atoms: _524  and  _525
REMARK  212  A    between atoms: _525  and  _526
REMARK  213  A    between atoms: _535  and  _537
REMARK  214  A    between atoms: _537  and  _538
REMARK  215  A    between atoms: _537  and  _540
REMARK  216  A    between atoms: _543  and  _545
REMARK  217  A    between atoms: _545  and  _546
REMARK  218  A    between atoms: _548  and  _550
REMARK  219  A    between atoms: _550  and  _551
REMARK  220  A    between atoms: _554  and  _556
REMARK  221  A    between atoms: _556  and  _557
REMARK  222  A    between atoms: _556  and  _559
REMARK                            x       y       z     vdW  Elec       q    Type
REMARK                         _______ _______ _______ _____ _____    ______ ____
ROOT
ATOM      1  C   TYR A   5      18.100  17.567  21.426  0.00  0.00    +0.241 C 
ATOM      2  N   THR A   6      18.552  17.850  22.643  0.00  0.00    -0.295 N 
ATOM      3  H   THR A   6      18.295  17.240  23.445  0.00  0.00    +0.150 HD
ATOM      4  O   TYR A   5      18.374  18.259  20.447  0.00  0.00    -0.273 OA
ENDROOT
BRANCH   2   5
ATOM      5  CA  THR A   6      19.410  19.016  22.859  0.00  0.00    +0.176 C 
BRANCH   5   6
ATOM      6  C   THR A   6      20.682  18.939  22.016  0.00  0.00    +0.243 C 
ATOM      7  O   THR A   6      21.457  17.983  22.124  0.00  0.00    -0.273 OA
ATOM      8  N   GLN A   7      20.879  19.945  21.169  0.00  0.00    -0.297 N 
ATOM      9  H   GLN A   7      20.165  20.699  21.111  0.00  0.00    +0.150 HD
BRANCH   8  10
ATOM     10  CA  GLN A   7      22.060  20.030  20.318  0.00  0.00    +0.149 C 
BRANCH  10  11
ATOM     11  C   GLN A   7      21.999  19.150  19.068  0.00  0.00    +0.241 C 
ATOM     12  N   GLY A   8      20.803  18.720  18.683  0.00  0.00    -0.295 N 
ATOM     13  H   GLY A   8      19.954  18.977  19.226  0.00  0.00    +0.150 HD
ATOM     14  O   GLN A   7      23.028  18.863  18.458  0.00  0.00    -0.273 OA
BRANCH  12  15
ATOM     15  CA  GLY A   8      20.689  17.889  17.498  0.00  0.00    +0.176 C 
BRANCH  15  16
ATOM     16  C   GLY A   8      19.320  17.278  17.284  0.00  0.00    +0.243 C 
ATOM     17  O   GLY A   8      18.431  17.394  18.131  0.00  0.00    -0.273 OA
ATOM     18  N   LYS A   9      19.144  16.620  16.142  0.00  0.00    -0.297 N 
ATOM     19  H   LYS A   9      19.926  16.560  15.459  0.00  0.00    +0.150 HD
BRANCH  18  20
ATOM     20  CA  LYS A   9      17.870  15.982  15.834  0.00  0.00    +0.149 C 
BRANCH  20  21
ATOM     21  C   LYS A   9      17.935  15.116  14.587  0.00  0.00    +0.241 C 
ATOM     22  N   TRP A  10      17.036  14.142  14.526  0.00  0.00    -0.298 N 
ATOM     23  H   TRP A  10      16.381  14.003  15.321  0.00  0.00    +0.150 HD
ATOM     24  O   LYS A   9      18.777  15.316  13.707  0.00  0.00    -0.273 OA
BRANCH  22  25
ATOM     25  CA  TRP A  10      16.949  13.267  13.371  0.00  0.00    +0.141 C 
BRANCH  25  26
ATOM     26  C   TRP A  10      15.494  12.913  13.101  0.00  0.00    +0.227 C 
ATOM     27  O   TRP A  10      14.659  12.894  14.005  0.00  0.00    -0.286 OA
ENDBRANCH  25  26
BRANCH  25  28
ATOM     28  CB  TRP A  10      17.788  11.991  13.558  0.00  0.00    +0.056 C 
BRANCH  28  29
ATOM     29  CG  TRP A  10      17.367  11.077  14.674  0.00  0.00    -0.002 A 
ATOM     30  CD1 TRP A  10      17.839  11.070  15.953  0.00  0.00    +0.068 A 
ATOM     31  NE1 TRP A  10      17.244  10.062  16.675  0.00  0.00    -0.352 N 
ATOM     32  HE1 TRP A  10      17.431   9.841  17.674  0.00  0.00    +0.166 HD
ATOM     33  CE2 TRP A  10      16.364   9.397  15.860  0.00  0.00    +0.056 A 
ATOM     34  CZ2 TRP A  10      15.535   8.315  16.131  0.00  0.00    +0.017 A 
ATOM     35  CH2 TRP A  10      14.750   7.855  15.109  0.00  0.00    +0.001 A 
ATOM     36  CZ3 TRP A  10      14.778   8.445  13.844  0.00  0.00    +0.000 A 
ATOM     37  CE3 TRP A  10      15.599   9.516  13.571  0.00  0.00    +0.001 A 
ATOM     38  CD2 TRP A  10      16.414  10.011  14.593  0.00  0.00    +0.013 A 
ENDBRANCH  28  29
ENDBRANCH  25  28
ENDBRANCH  22  25
ENDBRANCH  20  21
BRANCH  20  39
ATOM     39  CB  LYS A   9      16.781  17.037  15.634  0.00  0.00    +0.029 C 
BRANCH  39  40
ATOM     40  CG  LYS A   9      16.999  17.897  14.407  0.00  0.00    +0.000 C 
BRANCH  40  41
ATOM     41  CD  LYS A   9      15.766  18.721  14.073  0.00  0.00    -0.024 C 
BRANCH  41  42
ATOM     42  CE  LYS A   9      15.961  19.480  12.769  0.00  0.00    -0.086 C 
BRANCH  42  43
ATOM     43  NZ  LYS A   9      14.701  20.116  12.294  0.00  0.00    +0.380 N 
ATOM     44  HZ1 LYS A   9      14.361  20.788  13.012  0.00  0.00    -0.089 HD
ATOM     45  HZ2 LYS A   9      13.981  19.382  12.136  0.00  0.00    -0.089 HD
ATOM     46  HZ3 LYS A   9      14.883  20.621  11.403  0.00  0.00    -0.089 HD
ENDBRANCH  42  43
ENDBRANCH  41  42
ENDBRANCH  40  41
ENDBRANCH  39  40
ENDBRANCH  20  39
ENDBRANCH  18  20
ENDBRANCH  15  16
ENDBRANCH  12  15
ENDBRANCH  10  11
BRANCH  10  47
ATOM     47  CB  GLN A   7      23.310  19.669  21.132  0.00  0.00    +0.039 C 
BRANCH  47  48
ATOM     48  CG  GLN A   7      24.613  20.240  20.591  0.00  0.00    +0.087 C 
BRANCH  48  49
ATOM     49  CD  GLN A   7      24.742  21.736  20.832  0.00  0.00    +0.219 C 
ATOM     50  NE2 GLN A   7      23.717  22.335  21.434  0.00  0.00    -0.329 N 
ATOM     51 HE21 GLN A   7      22.882  21.782  21.712  0.00  0.00    +0.145 HD
ATOM     52 HE22 GLN A   7      23.752  23.356  21.626  0.00  0.00    +0.145 HD
ATOM     53  OE1 GLN A   7      25.755  22.344  20.482  0.00  0.00    -0.275 OA
ENDBRANCH  48  49
ENDBRANCH  47  48
ENDBRANCH  10  47
ENDBRANCH   8  10
ENDBRANCH   5   6
BRANCH   5  54
ATOM     54  CB  THR A   6      19.817  19.170  24.345  0.00  0.00    +0.137 C 
ATOM     55  CG2 THR A   6      20.657  20.429  24.529  0.00  0.00    +0.034 C 
BRANCH  54  56
ATOM     56  OG1 THR A   6      18.640  19.272  25.157  0.00  0.00    -0.382 OA
ATOM     57  HG1 THR A   6      18.903  19.370  26.106  0.00  0.00    +0.210 HD
ENDBRANCH  54  56
ENDBRANCH   5  54
ENDBRANCH   2   5
BRANCH   1  58
ATOM     58  CA  TYR A   5      17.189  16.348  21.283  0.00  0.00    +0.153 C 
BRANCH  58  61
ATOM     59  C   PRO A   4      15.265  16.320  19.823  0.00  0.00    +0.241 C 
ATOM     60  O   PRO A   4      14.513  16.096  20.773  0.00  0.00    -0.273 OA
ATOM     61  N   TYR A   5      16.579  16.419  19.961  0.00  0.00    -0.297 N 
ATOM     62  H   TYR A   5      17.179  16.548  19.121  0.00  0.00    +0.150 HD
BRANCH  59  65
ATOM     63  C   VAL A   3      14.362  14.213  17.480  0.00  0.00    +0.244 C 
ATOM     64  N   PRO A   4      13.889  15.256  18.164  0.00  0.00    -0.272 N 
ATOM     65  CA  PRO A   4      14.704  16.443  18.407  0.00  0.00    +0.152 C 
ATOM     66  CB  PRO A   4      13.692  17.572  18.288  0.00  0.00    +0.031 C 
ATOM     67  CG  PRO A   4      12.479  16.965  18.937  0.00  0.00    +0.024 C 
ATOM     68  CD  PRO A   4      12.459  15.542  18.387  0.00  0.00    +0.094 C 
ATOM     69  O   VAL A   3      15.485  14.212  16.979  0.00  0.00    -0.273 OA
BRANCH  63  70
ATOM     70  CA  VAL A   3      13.423  13.040  17.312  0.00  0.00    +0.149 C 
BRANCH  70  73
ATOM     71  C   TYR A   2      11.430  12.918  15.980  0.00  0.00    +0.241 C 
ATOM     72  O   TYR A   2      10.732  12.867  16.988  0.00  0.00    -0.273 OA
ATOM     73  N   VAL A   3      12.750  13.013  16.029  0.00  0.00    -0.297 N 
ATOM     74  H   VAL A   3      13.302  13.068  15.149  0.00  0.00    +0.150 HD
BRANCH  71  75
ATOM     75  CA  TYR A   2      10.799  12.866  14.600  0.00  0.00    +0.153 C 
BRANCH  75  77
ATOM     76  C   VAL A   1      10.281  10.695  13.609  0.00  0.00    +0.238 C 
ATOM     77  N   TYR A   2      10.032  11.629  14.522  0.00  0.00    -0.297 N 
ATOM     78  H   TYR A   2       9.263  11.471  15.204  0.00  0.00    +0.150 HD
ATOM     79  O   VAL A   1      11.146  10.816  12.740  0.00  0.00    -0.274 OA
BRANCH  76  80
ATOM     80  CA  VAL A   1       9.392   9.459  13.660  0.00  0.00    +0.145 C 
BRANCH  80  81
ATOM     81  CB  VAL A   1      10.173   8.250  14.248  0.00  0.00    +0.025 C 
ATOM     82  CG2 VAL A   1      10.552   8.530  15.701  0.00  0.00    +0.002 C 
ATOM     83  CG1 VAL A   1      11.407   7.963  13.413  0.00  0.00    +0.002 C 
ENDBRANCH  80  81
BRANCH  80  84
ATOM     84  N   VAL A   1       8.938   9.200  12.306  0.00  0.00    -0.238 NA
ATOM     85  H   VAL A   1       9.571   9.419  11.510  0.00  0.00    +0.142 HD
ENDBRANCH  80  84
ENDBRANCH  76  80
ENDBRANCH  75  77
BRANCH  75  86
ATOM     86  CB  TYR A   2       9.882  14.077  14.408  0.00  0.00    +0.055 C 
BRANCH  86  87
ATOM     87  CG  TYR A   2      10.584  15.403  14.599  0.00  0.00    -0.020 A 
ATOM     88  CD2 TYR A   2      10.154  16.308  15.561  0.00  0.00    -0.001 A 
ATOM     89  CE2 TYR A   2      10.803  17.520  15.744  0.00  0.00    +0.036 A 
ATOM     90  CZ  TYR A   2      11.893  17.834  14.960  0.00  0.00    +0.134 A 
ATOM     91  CE1 TYR A   2      12.338  16.951  13.997  0.00  0.00    +0.036 A 
ATOM     92  CD1 TYR A   2      11.683  15.745  13.821  0.00  0.00    -0.001 A 
BRANCH  90  93
ATOM     93  OH  TYR A   2      12.550  19.032  15.141  0.00  0.00    -0.506 OA
ATOM     94  HH  TYR A   2      13.302  19.095  14.500  0.00  0.00    +0.292 HD
ENDBRANCH  90  93
ENDBRANCH  86  87
ENDBRANCH  75  86
ENDBRANCH  71  75
ENDBRANCH  70  73
BRANCH  70  95
ATOM     95  CB  VAL A   3      14.217  11.742  17.550  0.00  0.00    +0.027 C 
ATOM     96  CG2 VAL A   3      14.959  11.826  18.875  0.00  0.00    +0.002 C 
ATOM     97  CG1 VAL A   3      13.277  10.560  17.557  0.00  0.00    +0.002 C 
ENDBRANCH  70  95
ENDBRANCH  63  70
ENDBRANCH  59  65
ENDBRANCH  58  61
BRANCH  58  98
ATOM     98  CB  TYR A   5      17.974  15.035  21.474  0.00  0.00    +0.055 C 
BRANCH  98  99
ATOM     99  CG  TYR A   5      19.031  14.768  20.428  0.00  0.00    -0.020 A 
ATOM    100  CD2 TYR A   5      20.361  15.095  20.662  0.00  0.00    -0.001 A 
ATOM    101  CE2 TYR A   5      21.326  14.910  19.692  0.00  0.00    +0.036 A 
ATOM    102  CZ  TYR A   5      20.968  14.389  18.467  0.00  0.00    +0.134 A 
ATOM    103  CE1 TYR A   5      19.654  14.048  18.211  0.00  0.00    +0.036 A 
ATOM    104  CD1 TYR A   5      18.694  14.239  19.190  0.00  0.00    -0.001 A 
BRANCH 102 105
ATOM    105  OH  TYR A   5      21.929  14.227  17.494  0.00  0.00    -0.506 OA
ATOM    106  HH  TYR A   5      21.513  13.845  16.681  0.00  0.00    +0.292 HD
ENDBRANCH 102 105
ENDBRANCH  98  99
ENDBRANCH  58  98
ENDBRANCH   1  58
TORSDOF 39
REMARK  Name = ../refined-set-2016/4h3f/4h3f_pocket.pdb
REMARK  222 active torsions:
REMARK  status: ('A' for Active; 'I' for Inactive)
REMARK    1  A    between atoms: _1  and  _3
REMARK    2  A    between atoms: _3  and  _4
REMARK    3  A    between atoms: _3  and  _6
REMARK    4  A    between atoms: _6  and  _7
REMARK    5  A    between atoms: _7  and  _8
REMARK    6  A    between atoms: _8  and  _9
REMARK    7  A    between atoms: _9  and  _10
REMARK    8  A    between atoms: _14  and  _16
REMARK    9  A    between atoms: _16  and  _17
REMARK   10  A    between atoms: _16  and  _19
REMARK   11  A    between atoms: _19  and  _20
REMARK   12  A    between atoms: _22  and  _24
REMARK   13  A    between atoms: _24  and  _25
REMARK   14  A    between atoms: _27  and  _29
REMARK   15  A    between atoms: _29  and  _30
REMARK   16  A    between atoms: _29  and  _32
REMARK   17  A    between atoms: _32  and  _33
REMARK   18  A    between atoms: _33  and  _34
REMARK   19  A    between atoms: _39  and  _41
REMARK   20  A    between atoms: _41  and  _42
REMARK   21  A    between atoms: _44  and  _46
REMARK   22  A    between atoms: _46  and  _47
REMARK   23  A    between atoms: _46  and  _49
REMARK   24  A    between atoms: _49  and  _50
REMARK   25  A    between atoms: _55  and  _56
REMARK   26  A    between atoms: _58  and  _60
REMARK   27  A    between atoms: _60  and  _61
REMARK   28  A    between atoms: _60  and  _63
REMARK   29  A    between atoms: _63  and  _64
REMARK   30  A    between atoms: _67  and  _69
REMARK   31  A    between atoms: _69  and  _70
REMARK   32  A    between atoms: _69  and  _72
REMARK   33  A    between atoms: _75  and  _77
REMARK   34  A    between atoms: _77  and  _78
REMARK   35  A    between atoms: _77  and  _80
REMARK   36  A    between atoms: _80  and  _81
REMARK   37  A    between atoms: _84  and  _86
REMARK   38  A    between atoms: _86  and  _87
REMARK   39  A    between atoms: _86  and  _89
REMARK   40  A    between atoms: _89  and  _90
REMARK   41  A    between atoms: _93  and  _95
REMARK   42  A    between atoms: _95  and  _96
REMARK   43  A    between atoms: _98  and  _100
REMARK   44  A    between atoms: _100  and  _101
REMARK   45  A    between atoms: _100  and  _103
REMARK   46  A    between atoms: _103  and  _104
REMARK   47  A    between atoms: _106  and  _108
REMARK   48  A    between atoms: _108  and  _109
REMARK   49  A    between atoms: _108  and  _111
REMARK   50  A    between atoms: _111  and  _112
REMARK   51  A    between atoms: _114  and  _116
REMARK   52  A    between atoms: _116  and  _117
REMARK   53  A    between atoms: _116  and  _119
REMARK   54  A    between atoms: _119  and  _120
REMARK   55  A    between atoms: _125  and  _127
REMARK   56  A    between atoms: _127  and  _128
REMARK   57  A    between atoms: _127  and  _130
REMARK   58  A    between atoms: _130  and  _131
REMARK   59  A    between atoms: _137  and  _139
REMARK   60  A    between atoms: _139  and  _140
REMARK   61  A    between atoms: _143  and  _145
REMARK   62  A    between atoms: _145  and  _146
REMARK   63  A    between atoms: _145  and  _148
REMARK   64  A    between atoms: _151  and  _153
REMARK   65  A    between atoms: _153  and  _154
REMARK   66  A    between atoms: _153  and  _156
REMARK   67  A    between atoms: _159  and  _161
REMARK   68  A    between atoms: _161  and  _162
REMARK   69  A    between atoms: _161  and  _164
REMARK   70  A    between atoms: _164  and  _165
REMARK   71  A    between atoms: _170  and  _171
REMARK   72  A    between atoms: _173  and  _175
REMARK   73  A    between atoms: _175  and  _176
REMARK   74  A    between atoms: _175  and  _178
REMARK   75  A    between atoms: _182  and  _183
REMARK   76  A    between atoms: _188  and  _190
REMARK   77  A    between atoms: _190  and  _191
REMARK   78  A    between atoms: _190  and  _193
REMARK   79  A    between atoms: _193  and  _194
REMARK   80  A    between atoms: _199  and  _200
REMARK   81  A    between atoms: _202  and  _204
REMARK   82  A    between atoms: _204  and  _205
REMARK   83  A    between atoms: _204  and  _207
REMARK   84  A    between atoms: _207  and  _208
REMARK   85  A    between atoms: _211  and  _213
REMARK   86  A    between atoms: _213  and  _214
REMARK   87  A    between atoms: _213  and  _216
REMARK   88  A    between atoms: _216  and  _217
REMARK   89  A    between atoms: _217  and  _218
REMARK   90  A    between atoms: _223  and  _225
REMARK   91  A    between atoms: _225  and  _226
REMARK   92  A    between atoms: _228  and  _230
REMARK   93  A    between atoms: _230  and  _231
REMARK   94  A    between atoms: _230  and  _233
REMARK   95  A    between atoms: _233  and  _234
REMARK   96  A    between atoms: _234  and  _235
REMARK   97  A    between atoms: _235  and  _236
REMARK   98  A    between atoms: _236  and  _237
REMARK   99  A    between atoms: _241  and  _243
REMARK  100  A    between atoms: _243  and  _244
REMARK  101  A    between atoms: _243  and  _246
REMARK  102  A    between atoms: _246  and  _247
REMARK  103  A    between atoms: _257  and  _259
REMARK  104  A    between atoms: _259  and  _260
REMARK  105  A    between atoms: _263  and  _265
REMARK  106  A    between atoms: _265  and  _266
REMARK  107  A    between atoms: _265  and  _268
REMARK  108  A    between atoms: _268  and  _269
REMARK  109  A    between atoms: _272  and  _274
REMARK  110  A    between atoms: _274  and  _275
REMARK  111  A    between atoms: _274  and  _277
REMARK  112  A    between atoms: _277  and  _278
REMARK  113  A    between atoms: _281  and  _283
REMARK  114  A    between atoms: _283  and  _284
REMARK  115  A    between atoms: _283  and  _286
REMARK  116  A    between atoms: _286  and  _287
REMARK  117  A    between atoms: _287  and  _288
REMARK  118  A    between atoms: _288  and  _289
REMARK  119  A    between atoms: _289  and  _290
REMARK  120  A    between atoms: _294  and  _296
REMARK  121  A    between atoms: _296  and  _297
REMARK  122  A    between atoms: _296  and  _299
REMARK  123  A    between atoms: _299  and  _300
REMARK  124  A    between atoms: _306  and  _308
REMARK  125  A    between atoms: _308  and  _309
REMARK  126  A    between atoms: _308  and  _311
REMARK  127  A    between atoms: _311  and  _312
REMARK  128  A    between atoms: _318  and  _320
REMARK  129  A    between atoms: _320  and  _321
REMARK  130  A    between atoms: _320  and  _323
REMARK  131  A    between atoms: _323  and  _324
REMARK  132  A    between atoms: _327  and  _329
REMARK  133  A    between atoms: _329  and  _330
REMARK  134  A    between atoms: _329  and  _332
REMARK  135  A    between atoms: _332  and  _333
REMARK  136  A    between atoms: _335  and  _337
REMARK  137  A    between atoms: _337  and  _338
REMARK  138  A    between atoms: _337  and  _340
REMARK  139  A    between atoms: _340  and  _341
REMARK  140  A    between atoms: _351  and  _353
REMARK  141  A    between atoms: _353  and  _354
REMARK  142  A    between atoms: _356  and  _358
REMARK  143  A    between atoms: _358  and  _359
REMARK  144  A    between atoms: _358  and  _361
REMARK  145  A    between atoms: _361  and  _362
REMARK  146  A    between atoms: _365  and  _367
REMARK  147  A    between atoms: _367  and  _368
REMARK  148  A    between atoms: _367  and  _370
REMARK  149  A    between atoms: _370  and  _371
REMARK  150  A    between atoms: _374  and  _376
REMARK  151  A    between atoms: _376  and  _377
REMARK  152  A    between atoms: _379  and  _381
REMARK  153  A    between atoms: _381  and  _382
REMARK  154  A    between atoms: _381  and  _384
REMARK  155  A    between atoms: _384  and  _385
REMARK  156  A    between atoms: _388  and  _390
REMARK  157  A    between atoms: _390  and  _391
REMARK  158  A    between atoms: _390  and  _393
REMARK  159  A    between atoms: _393  and  _394
REMARK  160  A    between atoms: _397  and  _399
REMARK  161  A    between atoms: _399  and  _400
REMARK  162  A    between atoms: _403  and  _405
REMARK  163  A    between atoms: _405  and  _406
REMARK  164  A    between atoms: _405  and  _408
REMARK  165  A    between atoms: _408  and  _409
REMARK  166  A    between atoms: _409  and  _410
REMARK  167  A    between atoms: _410  and  _411
REMARK  168  A    between atoms: _421  and  _422
REMARK  169  A    between atoms: _427  and  _429
REMARK  170  A    between atoms: _429  and  _430
REMARK  171  A    between atoms: _429  and  _432
REMARK  172  A    between atoms: _432  and  _433
REMARK  173  A    between atoms: _436  and  _438
REMARK  174  A    between atoms: _438  and  _439
REMARK  175  A    between atoms: _438  and  _441
REMARK  176  A    between atoms: _441  and  _442
REMARK  177  A    between atoms: _447  and  _448
REMARK  178  A    between atoms: _450  and  _452
REMARK  179  A    between atoms: _452  and  _453
REMARK  180  A    between atoms: _452  and  _455
REMARK  181  A    between atoms: _455  and  _456
REMARK  182  A    between atoms: _459  and  _461
REMARK  183  A    between atoms: _461  and  _462
REMARK  184  A    between atoms: _461  and  _464
REMARK  185  A    between atoms: _467  and  _469
REMARK  186  A    between atoms: _469  and  _470
REMARK  187  A    between atoms: _469  and  _472
REMARK  188  A    between atoms: _472  and  _473
REMARK  189  A    between atoms: _476  and  _478
REMARK  190  A    between atoms: _478  and  _479
REMARK  191  A    between atoms: _478  and  _481
REMARK  192  A    between atoms: _481  and  _482
REMARK  193  A    between atoms: _484  and  _486
REMARK  194  A    between atoms: _486  and  _487
REMARK  195  A    between atoms: _489  and  _491
REMARK  196  A    between atoms: _491  and  _492
REMARK  197  A    between atoms: _491  and  _494
REMARK  198  A    between atoms: _494  and  _495
REMARK  199  A    between atoms: _498  and  _500
REMARK  200  A    between atoms: _500  and  _501
REMARK  201  A    between atoms: _500  and  _503
REMARK  202  A    between atoms: _503  and  _504
REMARK  203  A    between atoms: _507  and  _509
REMARK  204  A    between atoms: _509  and  _510
REMARK  205  A    between atoms: _509  and  _512
REMARK  206  A    between atoms: _512  and  _513
REMARK  207  A    between atoms: _518  and  _520
REMARK  208  A    between atoms: _520  and  _521
REMARK  209  A    between atoms: _520  and  _523
REMARK  210  A    between atoms: _523  and  _524
REMARK  211  A    between atoms: _524  and  _525
REMARK  212  A    between atoms: _525  and  _526
REMARK  213  A    between atoms: _535  and  _537
REMARK  214  A    between atoms: _537  and  _538
REMARK  215  A    between atoms: _537  and  _540
REMARK  216  A    between atoms: _543  and  _545
REMARK  217  A    between atoms: _545  and  _546
REMARK  218  A    between atoms: _548  and  _550
REMARK  219  A    between atoms: _550  and  _551
REMARK  220  A    between atoms: _554  and  _556
REMARK  221  A    between atoms: _556  and  _557
REMARK  222  A    between atoms: _556  and  _559
REMARK                            x       y       z     vdW  Elec       q    Type
REMARK                         _______ _______ _______ _____ _____    ______ ____
ROOT
ATOM      1  CA  ALA A   1      14.213   3.851  12.166  0.00  0.00    +0.133 C 
ATOM      2  CB  ALA A   1      14.303   4.822  13.354  0.00  0.00    +0.027 C 
ENDROOT
BRANCH   1   3
ATOM      3  N   ALA A   1      14.626   2.519  12.563  0.00  0.00    -0.239 NA
ATOM      4  H   ALA A   1      15.395   2.402  13.253  0.00  0.00    +0.142 HD
ENDBRANCH   1   3
BRANCH   1   5
ATOM      5  C   ALA A   1      15.197   4.243  11.074  0.00  0.00    +0.224 C 
ATOM      6  O   ALA A   1      16.393   4.412  11.335  0.00  0.00    -0.287 OA
ENDBRANCH   1   5
TORSDOF 2
REMARK  Name = ../refined-set-2016/4h3f/4h3f_pocket.pdb
REMARK  222 active torsions:
REMARK  status: ('A' for Active; 'I' for Inactive)
REMARK    1  A    between atoms: _1  and  _3
REMARK    2  A    between atoms: _3  and  _4
REMARK    3  A    between atoms: _3  and  _6
REMARK    4  A    between atoms: _6  and  _7
REMARK    5  A    between atoms: _7  and  _8
REMARK    6  A    between atoms: _8  and  _9
REMARK    7  A    between atoms: _9  and  _10
REMARK    8  A    between atoms: _14  and  _16
REMARK    9  A    between atoms: _16  and  _17
REMARK   10  A    between atoms: _16  and  _19
REMARK   11  A    between atoms: _19  and  _20
REMARK   12  A    between atoms: _22  and  _24
REMARK   13  A    between atoms: _24  and  _25
REMARK   14  A    between atoms: _27  and  _29
REMARK   15  A    between atoms: _29  and  _30
REMARK   16  A    between atoms: _29  and  _32
REMARK   17  A    between atoms: _32  and  _33
REMARK   18  A    between atoms: _33  and  _34
REMARK   19  A    between atoms: _39  and  _41
REMARK   20  A    between atoms: _41  and  _42
REMARK   21  A    between atoms: _44  and  _46
REMARK   22  A    between atoms: _46  and  _47
REMARK   23  A    between atoms: _46  and  _49
REMARK   24  A    between atoms: _49  and  _50
REMARK   25  A    between atoms: _55  and  _56
REMARK   26  A    between atoms: _58  and  _60
REMARK   27  A    between atoms: _60  and  _61
REMARK   28  A    between atoms: _60  and  _63
REMARK   29  A    between atoms: _63  and  _64
REMARK   30  A    between atoms: _67  and  _69
REMARK   31  A    between atoms: _69  and  _70
REMARK   32  A    between atoms: _69  and  _72
REMARK   33  A    between atoms: _75  and  _77
REMARK   34  A    between atoms: _77  and  _78
REMARK   35  A    between atoms: _77  and  _80
REMARK   36  A    between atoms: _80  and  _81
REMARK   37  A    between atoms: _84  and  _86
REMARK   38  A    between atoms: _86  and  _87
REMARK   39  A    between atoms: _86  and  _89
REMARK   40  A    between atoms: _89  and  _90
REMARK   41  A    between atoms: _93  and  _95
REMARK   42  A    between atoms: _95  and  _96
REMARK   43  A    between atoms: _98  and  _100
REMARK   44  A    between atoms: _100  and  _101
REMARK   45  A    between atoms: _100  and  _103
REMARK   46  A    between atoms: _103  and  _104
REMARK   47  A    between atoms: _106  and  _108
REMARK   48  A    between atoms: _108  and  _109
REMARK   49  A    between atoms: _108  and  _111
REMARK   50  A    between atoms: _111  and  _112
REMARK   51  A    between atoms: _114  and  _116
REMARK   52  A    between atoms: _116  and  _117
REMARK   53  A    between atoms: _116  and  _119
REMARK   54  A    between atoms: _119  and  _120
REMARK   55  A    between atoms: _125  and  _127
REMARK   56  A    between atoms: _127  and  _128
REMARK   57  A    between atoms: _127  and  _130
REMARK   58  A    between atoms: _130  and  _131
REMARK   59  A    between atoms: _137  and  _139
REMARK   60  A    between atoms: _139  and  _140
REMARK   61  A    between atoms: _143  and  _145
REMARK   62  A    between atoms: _145  and  _146
REMARK   63  A    between atoms: _145  and  _148
REMARK   64  A    between atoms: _151  and  _153
REMARK   65  A    between atoms: _153  and  _154
REMARK   66  A    between atoms: _153  and  _156
REMARK   67  A    between atoms: _159  and  _161
REMARK   68  A    between atoms: _161  and  _162
REMARK   69  A    between atoms: _161  and  _164
REMARK   70  A    between atoms: _164  and  _165
REMARK   71  A    between atoms: _170  and  _171
REMARK   72  A    between atoms: _173  and  _175
REMARK   73  A    between atoms: _175  and  _176
REMARK   74  A    between atoms: _175  and  _178
REMARK   75  A    between atoms: _182  and  _183
REMARK   76  A    between atoms: _188  and  _190
REMARK   77  A    between atoms: _190  and  _191
REMARK   78  A    between atoms: _190  and  _193
REMARK   79  A    between atoms: _193  and  _194
REMARK   80  A    between atoms: _199  and  _200
REMARK   81  A    between atoms: _202  and  _204
REMARK   82  A    between atoms: _204  and  _205
REMARK   83  A    between atoms: _204  and  _207
REMARK   84  A    between atoms: _207  and  _208
REMARK   85  A    between atoms: _211  and  _213
REMARK   86  A    between atoms: _213  and  _214
REMARK   87  A    between atoms: _213  and  _216
REMARK   88  A    between atoms: _216  and  _217
REMARK   89  A    between atoms: _217  and  _218
REMARK   90  A    between atoms: _223  and  _225
REMARK   91  A    between atoms: _225  and  _226
REMARK   92  A    between atoms: _228  and  _230
REMARK   93  A    between atoms: _230  and  _231
REMARK   94  A    between atoms: _230  and  _233
REMARK   95  A    between atoms: _233  and  _234
REMARK   96  A    between atoms: _234  and  _235
REMARK   97  A    between atoms: _235  and  _236
REMARK   98  A    between atoms: _236  and  _237
REMARK   99  A    between atoms: _241  and  _243
REMARK  100  A    between atoms: _243  and  _244
REMARK  101  A    between atoms: _243  and  _246
REMARK  102  A    between atoms: _246  and  _247
REMARK  103  A    between atoms: _257  and  _259
REMARK  104  A    between atoms: _259  and  _260
REMARK  105  A    between atoms: _263  and  _265
REMARK  106  A    between atoms: _265  and  _266
REMARK  107  A    between atoms: _265  and  _268
REMARK  108  A    between atoms: _268  and  _269
REMARK  109  A    between atoms: _272  and  _274
REMARK  110  A    between atoms: _274  and  _275
REMARK  111  A    between atoms: _274  and  _277
REMARK  112  A    between atoms: _277  and  _278
REMARK  113  A    between atoms: _281  and  _283
REMARK  114  A    between atoms: _283  and  _284
REMARK  115  A    between atoms: _283  and  _286
REMARK  116  A    between atoms: _286  and  _287
REMARK  117  A    between atoms: _287  and  _288
REMARK  118  A    between atoms: _288  and  _289
REMARK  119  A    between atoms: _289  and  _290
REMARK  120  A    between atoms: _294  and  _296
REMARK  121  A    between atoms: _296  and  _297
REMARK  122  A    between atoms: _296  and  _299
REMARK  123  A    between atoms: _299  and  _300
REMARK  124  A    between atoms: _306  and  _308
REMARK  125  A    between atoms: _308  and  _309
REMARK  126  A    between atoms: _308  and  _311
REMARK  127  A    between atoms: _311  and  _312
REMARK  128  A    between atoms: _318  and  _320
REMARK  129  A    between atoms: _320  and  _321
REMARK  130  A    between atoms: _320  and  _323
REMARK  131  A    between atoms: _323  and  _324
REMARK  132  A    between atoms: _327  and  _329
REMARK  133  A    between atoms: _329  and  _330
REMARK  134  A    between atoms: _329  and  _332
REMARK  135  A    between atoms: _332  and  _333
REMARK  136  A    between atoms: _335  and  _337
REMARK  137  A    between atoms: _337  and  _338
REMARK  138  A    between atoms: _337  and  _340
REMARK  139  A    between atoms: _340  and  _341
REMARK  140  A    between atoms: _351  and  _353
REMARK  141  A    between atoms: _353  and  _354
REMARK  142  A    between atoms: _356  and  _358
REMARK  143  A    between atoms: _358  and  _359
REMARK  144  A    between atoms: _358  and  _361
REMARK  145  A    between atoms: _361  and  _362
REMARK  146  A    between atoms: _365  and  _367
REMARK  147  A    between atoms: _367  and  _368
REMARK  148  A    between atoms: _367  and  _370
REMARK  149  A    between atoms: _370  and  _371
REMARK  150  A    between atoms: _374  and  _376
REMARK  151  A    between atoms: _376  and  _377
REMARK  152  A    between atoms: _379  and  _381
REMARK  153  A    between atoms: _381  and  _382
REMARK  154  A    between atoms: _381  and  _384
REMARK  155  A    between atoms: _384  and  _385
REMARK  156  A    between atoms: _388  and  _390
REMARK  157  A    between atoms: _390  and  _391
REMARK  158  A    between atoms: _390  and  _393
REMARK  159  A    between atoms: _393  and  _394
REMARK  160  A    between atoms: _397  and  _399
REMARK  161  A    between atoms: _399  and  _400
REMARK  162  A    between atoms: _403  and  _405
REMARK  163  A    between atoms: _405  and  _406
REMARK  164  A    between atoms: _405  and  _408
REMARK  165  A    between atoms: _408  and  _409
REMARK  166  A    between atoms: _409  and  _410
REMARK  167  A    between atoms: _410  and  _411
REMARK  168  A    between atoms: _421  and  _422
REMARK  169  A    between atoms: _427  and  _429
REMARK  170  A    between atoms: _429  and  _430
REMARK  171  A    between atoms: _429  and  _432
REMARK  172  A    between atoms: _432  and  _433
REMARK  173  A    between atoms: _436  and  _438
REMARK  174  A    between atoms: _438  and  _439
REMARK  175  A    between atoms: _438  and  _441
REMARK  176  A    between atoms: _441  and  _442
REMARK  177  A    between atoms: _447  and  _448
REMARK  178  A    between atoms: _450  and  _452
REMARK  179  A    between atoms: _452  and  _453
REMARK  180  A    between atoms: _452  and  _455
REMARK  181  A    between atoms: _455  and  _456
REMARK  182  A    between atoms: _459  and  _461
REMARK  183  A    between atoms: _461  and  _462
REMARK  184  A    between atoms: _461  and  _464
REMARK  185  A    between atoms: _467  and  _469
REMARK  186  A    between atoms: _469  and  _470
REMARK  187  A    between atoms: _469  and  _472
REMARK  188  A    between atoms: _472  and  _473
REMARK  189  A    between atoms: _476  and  _478
REMARK  190  A    between atoms: _478  and  _479
REMARK  191  A    between atoms: _478  and  _481
REMARK  192  A    between atoms: _481  and  _482
REMARK  193  A    between atoms: _484  and  _486
REMARK  194  A    between atoms: _486  and  _487
REMARK  195  A    between atoms: _489  and  _491
REMARK  196  A    between atoms: _491  and  _492
REMARK  197  A    between atoms: _491  and  _494
REMARK  198  A    between atoms: _494  and  _495
REMARK  199  A    between atoms: _498  and  _500
REMARK  200  A    between atoms: _500  and  _501
REMARK  201  A    between atoms: _500  and  _503
REMARK  202  A    between atoms: _503  and  _504
REMARK  203  A    between atoms: _507  and  _509
REMARK  204  A    between atoms: _509  and  _510
REMARK  205  A    between atoms: _509  and  _512
REMARK  206  A    between atoms: _512  and  _513
REMARK  207  A    between atoms: _518  and  _520
REMARK  208  A    between atoms: _520  and  _521
REMARK  209  A    between atoms: _520  and  _523
REMARK  210  A    between atoms: _523  and  _524
REMARK  211  A    between atoms: _524  and  _525
REMARK  212  A    between atoms: _525  and  _526
REMARK  213  A    between atoms: _535  and  _537
REMARK  214  A    between atoms: _537  and  _538
REMARK  215  A    between atoms: _537  and  _540
REMARK  216  A    between atoms: _543  and  _545
REMARK  217  A    between atoms: _545  and  _546
REMARK  218  A    between atoms: _548  and  _550
REMARK  219  A    between atoms: _550  and  _551
REMARK  220  A    between atoms: _554  and  _556
REMARK  221  A    between atoms: _556  and  _557
REMARK  222  A    between atoms: _556  and  _559
REMARK                            x       y       z     vdW  Elec       q    Type
REMARK                         _______ _______ _______ _____ _____    ______ ____
ROOT
ATOM      1  CA  ILE A   1      17.018   8.179   9.026  0.00  0.00    +0.133 C 
ENDROOT
BRANCH   1   2
ATOM      2  N   ILE A   1      16.801   6.739   9.004  0.00  0.00    -0.239 NA
ATOM      3  H   ILE A   1      17.579   6.103   9.272  0.00  0.00    +0.142 HD
ENDBRANCH   1   2
BRANCH   1   4
ATOM      4  CB  ILE A   1      18.285   8.524   9.845  0.00  0.00    +0.023 C 
ATOM      5  CG2 ILE A   1      18.507  10.035   9.876  0.00  0.00    +0.002 C 
BRANCH   4   6
ATOM      6  CG1 ILE A   1      18.124   7.992  11.268  0.00  0.00    +0.002 C 
ATOM      7  CD1 ILE A   1      19.373   8.165  12.125  0.00  0.00    +0.000 C 
ENDBRANCH   4   6
ENDBRANCH   1   4
BRANCH   1   8
ATOM      8  C   ILE A   1      17.110   8.782   7.632  0.00  0.00    +0.224 C 
ATOM      9  O   ILE A   1      17.989   8.434   6.835  0.00  0.00    -0.287 OA
ENDBRANCH   1   8
TORSDOF 4
REMARK  Name = ../refined-set-2016/4h3f/4h3f_pocket.pdb
REMARK  222 active torsions:
REMARK  status: ('A' for Active; 'I' for Inactive)
REMARK    1  A    between atoms: _1  and  _3
REMARK    2  A    between atoms: _3  and  _4
REMARK    3  A    between atoms: _3  and  _6
REMARK    4  A    between atoms: _6  and  _7
REMARK    5  A    between atoms: _7  and  _8
REMARK    6  A    between atoms: _8  and  _9
REMARK    7  A    between atoms: _9  and  _10
REMARK    8  A    between atoms: _14  and  _16
REMARK    9  A    between atoms: _16  and  _17
REMARK   10  A    between atoms: _16  and  _19
REMARK   11  A    between atoms: _19  and  _20
REMARK   12  A    between atoms: _22  and  _24
REMARK   13  A    between atoms: _24  and  _25
REMARK   14  A    between atoms: _27  and  _29
REMARK   15  A    between atoms: _29  and  _30
REMARK   16  A    between atoms: _29  and  _32
REMARK   17  A    between atoms: _32  and  _33
REMARK   18  A    between atoms: _33  and  _34
REMARK   19  A    between atoms: _39  and  _41
REMARK   20  A    between atoms: _41  and  _42
REMARK   21  A    between atoms: _44  and  _46
REMARK   22  A    between atoms: _46  and  _47
REMARK   23  A    between atoms: _46  and  _49
REMARK   24  A    between atoms: _49  and  _50
REMARK   25  A    between atoms: _55  and  _56
REMARK   26  A    between atoms: _58  and  _60
REMARK   27  A    between atoms: _60  and  _61
REMARK   28  A    between atoms: _60  and  _63
REMARK   29  A    between atoms: _63  and  _64
REMARK   30  A    between atoms: _67  and  _69
REMARK   31  A    between atoms: _69  and  _70
REMARK   32  A    between atoms: _69  and  _72
REMARK   33  A    between atoms: _75  and  _77
REMARK   34  A    between atoms: _77  and  _78
REMARK   35  A    between atoms: _77  and  _80
REMARK   36  A    between atoms: _80  and  _81
REMARK   37  A    between atoms: _84  and  _86
REMARK   38  A    between atoms: _86  and  _87
REMARK   39  A    between atoms: _86  and  _89
REMARK   40  A    between atoms: _89  and  _90
REMARK   41  A    between atoms: _93  and  _95
REMARK   42  A    between atoms: _95  and  _96
REMARK   43  A    between atoms: _98  and  _100
REMARK   44  A    between atoms: _100  and  _101
REMARK   45  A    between atoms: _100  and  _103
REMARK   46  A    between atoms: _103  and  _104
REMARK   47  A    between atoms: _106  and  _108
REMARK   48  A    between atoms: _108  and  _109
REMARK   49  A    between atoms: _108  and  _111
REMARK   50  A    between atoms: _111  and  _112
REMARK   51  A    between atoms: _114  and  _116
REMARK   52  A    between atoms: _116  and  _117
REMARK   53  A    between atoms: _116  and  _119
REMARK   54  A    between atoms: _119  and  _120
REMARK   55  A    between atoms: _125  and  _127
REMARK   56  A    between atoms: _127  and  _128
REMARK   57  A    between atoms: _127  and  _130
REMARK   58  A    between atoms: _130  and  _131
REMARK   59  A    between atoms: _137  and  _139
REMARK   60  A    between atoms: _139  and  _140
REMARK   61  A    between atoms: _143  and  _145
REMARK   62  A    between atoms: _145  and  _146
REMARK   63  A    between atoms: _145  and  _148
REMARK   64  A    between atoms: _151  and  _153
REMARK   65  A    between atoms: _153  and  _154
REMARK   66  A    between atoms: _153  and  _156
REMARK   67  A    between atoms: _159  and  _161
REMARK   68  A    between atoms: _161  and  _162
REMARK   69  A    between atoms: _161  and  _164
REMARK   70  A    between atoms: _164  and  _165
REMARK   71  A    between atoms: _170  and  _171
REMARK   72  A    between atoms: _173  and  _175
REMARK   73  A    between atoms: _175  and  _176
REMARK   74  A    between atoms: _175  and  _178
REMARK   75  A    between atoms: _182  and  _183
REMARK   76  A    between atoms: _188  and  _190
REMARK   77  A    between atoms: _190  and  _191
REMARK   78  A    between atoms: _190  and  _193
REMARK   79  A    between atoms: _193  and  _194
REMARK   80  A    between atoms: _199  and  _200
REMARK   81  A    between atoms: _202  and  _204
REMARK   82  A    between atoms: _204  and  _205
REMARK   83  A    between atoms: _204  and  _207
REMARK   84  A    between atoms: _207  and  _208
REMARK   85  A    between atoms: _211  and  _213
REMARK   86  A    between atoms: _213  and  _214
REMARK   87  A    between atoms: _213  and  _216
REMARK   88  A    between atoms: _216  and  _217
REMARK   89  A    between atoms: _217  and  _218
REMARK   90  A    between atoms: _223  and  _225
REMARK   91  A    between atoms: _225  and  _226
REMARK   92  A    between atoms: _228  and  _230
REMARK   93  A    between atoms: _230  and  _231
REMARK   94  A    between atoms: _230  and  _233
REMARK   95  A    between atoms: _233  and  _234
REMARK   96  A    between atoms: _234  and  _235
REMARK   97  A    between atoms: _235  and  _236
REMARK   98  A    between atoms: _236  and  _237
REMARK   99  A    between atoms: _241  and  _243
REMARK  100  A    between atoms: _243  and  _244
REMARK  101  A    between atoms: _243  and  _246
REMARK  102  A    between atoms: _246  and  _247
REMARK  103  A    between atoms: _257  and  _259
REMARK  104  A    between atoms: _259  and  _260
REMARK  105  A    between atoms: _263  and  _265
REMARK  106  A    between atoms: _265  and  _266
REMARK  107  A    between atoms: _265  and  _268
REMARK  108  A    between atoms: _268  and  _269
REMARK  109  A    between atoms: _272  and  _274
REMARK  110  A    between atoms: _274  and  _275
REMARK  111  A    between atoms: _274  and  _277
REMARK  112  A    between atoms: _277  and  _278
REMARK  113  A    between atoms: _281  and  _283
REMARK  114  A    between atoms: _283  and  _284
REMARK  115  A    between atoms: _283  and  _286
REMARK  116  A    between atoms: _286  and  _287
REMARK  117  A    between atoms: _287  and  _288
REMARK  118  A    between atoms: _288  and  _289
REMARK  119  A    between atoms: _289  and  _290
REMARK  120  A    between atoms: _294  and  _296
REMARK  121  A    between atoms: _296  and  _297
REMARK  122  A    between atoms: _296  and  _299
REMARK  123  A    between atoms: _299  and  _300
REMARK  124  A    between atoms: _306  and  _308
REMARK  125  A    between atoms: _308  and  _309
REMARK  126  A    between atoms: _308  and  _311
REMARK  127  A    between atoms: _311  and  _312
REMARK  128  A    between atoms: _318  and  _320
REMARK  129  A    between atoms: _320  and  _321
REMARK  130  A    between atoms: _320  and  _323
REMARK  131  A    between atoms: _323  and  _324
REMARK  132  A    between atoms: _327  and  _329
REMARK  133  A    between atoms: _329  and  _330
REMARK  134  A    between atoms: _329  and  _332
REMARK  135  A    between atoms: _332  and  _333
REMARK  136  A    between atoms: _335  and  _337
REMARK  137  A    between atoms: _337  and  _338
REMARK  138  A    between atoms: _337  and  _340
REMARK  139  A    between atoms: _340  and  _341
REMARK  140  A    between atoms: _351  and  _353
REMARK  141  A    between atoms: _353  and  _354
REMARK  142  A    between atoms: _356  and  _358
REMARK  143  A    between atoms: _358  and  _359
REMARK  144  A    between atoms: _358  and  _361
REMARK  145  A    between atoms: _361  and  _362
REMARK  146  A    between atoms: _365  and  _367
REMARK  147  A    between atoms: _367  and  _368
REMARK  148  A    between atoms: _367  and  _370
REMARK  149  A    between atoms: _370  and  _371
REMARK  150  A    between atoms: _374  and  _376
REMARK  151  A    between atoms: _376  and  _377
REMARK  152  A    between atoms: _379  and  _381
REMARK  153  A    between atoms: _381  and  _382
REMARK  154  A    between atoms: _381  and  _384
REMARK  155  A    between atoms: _384  and  _385
REMARK  156  A    between atoms: _388  and  _390
REMARK  157  A    between atoms: _390  and  _391
REMARK  158  A    between atoms: _390  and  _393
REMARK  159  A    between atoms: _393  and  _394
REMARK  160  A    between atoms: _397  and  _399
REMARK  161  A    between atoms: _399  and  _400
REMARK  162  A    between atoms: _403  and  _405
REMARK  163  A    between atoms: _405  and  _406
REMARK  164  A    between atoms: _405  and  _408
REMARK  165  A    between atoms: _408  and  _409
REMARK  166  A    between atoms: _409  and  _410
REMARK  167  A    between atoms: _410  and  _411
REMARK  168  A    between atoms: _421  and  _422
REMARK  169  A    between atoms: _427  and  _429
REMARK  170  A    between atoms: _429  and  _430
REMARK  171  A    between atoms: _429  and  _432
REMARK  172  A    between atoms: _432  and  _433
REMARK  173  A    between atoms: _436  and  _438
REMARK  174  A    between atoms: _438  and  _439
REMARK  175  A    between atoms: _438  and  _441
REMARK  176  A    between atoms: _441  and  _442
REMARK  177  A    between atoms: _447  and  _448
REMARK  178  A    between atoms: _450  and  _452
REMARK  179  A    between atoms: _452  and  _453
REMARK  180  A    between atoms: _452  and  _455
REMARK  181  A    between atoms: _455  and  _456
REMARK  182  A    between atoms: _459  and  _461
REMARK  183  A    between atoms: _461  and  _462
REMARK  184  A    between atoms: _461  and  _464
REMARK  185  A    between atoms: _467  and  _469
REMARK  186  A    between atoms: _469  and  _470
REMARK  187  A    between atoms: _469  and  _472
REMARK  188  A    between atoms: _472  and  _473
REMARK  189  A    between atoms: _476  and  _478
REMARK  190  A    between atoms: _478  and  _479
REMARK  191  A    between atoms: _478  and  _481
REMARK  192  A    between atoms: _481  and  _482
REMARK  193  A    between atoms: _484  and  _486
REMARK  194  A    between atoms: _486  and  _487
REMARK  195  A    between atoms: _489  and  _491
REMARK  196  A    between atoms: _491  and  _492
REMARK  197  A    between atoms: _491  and  _494
REMARK  198  A    between atoms: _494  and  _495
REMARK  199  A    between atoms: _498  and  _500
REMARK  200  A    between atoms: _500  and  _501
REMARK  201  A    between atoms: _500  and  _503
REMARK  202  A    between atoms: _503  and  _504
REMARK  203  A    between atoms: _507  and  _509
REMARK  204  A    between atoms: _509  and  _510
REMARK  205  A    between atoms: _509  and  _512
REMARK  206  A    between atoms: _512  and  _513
REMARK  207  A    between atoms: _518  and  _520
REMARK  208  A    between atoms: _520  and  _521
REMARK  209  A    between atoms: _520  and  _523
REMARK  210  A    between atoms: _523  and  _524
REMARK  211  A    between atoms: _524  and  _525
REMARK  212  A    between atoms: _525  and  _526
REMARK  213  A    between atoms: _535  and  _537
REMARK  214  A    between atoms: _537  and  _538
REMARK  215  A    between atoms: _537  and  _540
REMARK  216  A    between atoms: _543  and  _545
REMARK  217  A    between atoms: _545  and  _546
REMARK  218  A    between atoms: _548  and  _550
REMARK  219  A    between atoms: _550  and  _551
REMARK  220  A    between atoms: _554  and  _556
REMARK  221  A    between atoms: _556  and  _557
REMARK  222  A    between atoms: _556  and  _559
REMARK                            x       y       z     vdW  Elec       q    Type
REMARK                         _______ _______ _______ _____ _____    ______ ____
ROOT
ATOM      1  CA  PHE A   3      23.649  13.973  14.222  0.00  0.00    +0.153 C 
ENDROOT
BRANCH   1   4
ATOM      2  C   LYS A   2      24.065  16.341  14.593  0.00  0.00    +0.241 C 
ATOM      3  O   LYS A   2      24.246  16.173  15.800  0.00  0.00    -0.273 OA
ATOM      4  N   PHE A   3      23.770  15.349  13.760  0.00  0.00    -0.297 N 
ATOM      5  H   PHE A   3      23.622  15.560  12.753  0.00  0.00    +0.150 HD
BRANCH   2   6
ATOM      6  CA  LYS A   2      24.161  17.729  13.972  0.00  0.00    +0.149 C 
BRANCH   6   9
ATOM      7  C   ASP A   1      21.837  17.664  13.247  0.00  0.00    +0.239 C 
ATOM      8  O   ASP A   1      21.452  17.267  14.350  0.00  0.00    -0.274 OA
ATOM      9  N   LYS A   2      23.114  17.912  12.971  0.00  0.00    -0.297 N 
ATOM     10  H   LYS A   2      23.373  18.244  12.020  0.00  0.00    +0.150 HD
BRANCH   7  11
ATOM     11  CA  ASP A   1      20.843  17.899  12.116  0.00  0.00    +0.156 C 
BRANCH  11  12
ATOM     12  N   ASP A   1      20.152  16.651  11.810  0.00  0.00    -0.238 NA
ATOM     13  H   ASP A   1      19.798  16.067  12.594  0.00  0.00    +0.142 HD
ENDBRANCH  11  12
BRANCH  11  14
ATOM     14  CB  ASP A   1      19.844  18.976  12.543  0.00  0.00    +0.140 C 
BRANCH  14  15
ATOM     15  CG  ASP A   1      20.512  20.315  12.818  0.00  0.00    +0.367 C 
ATOM     16  OD2 ASP A   1      19.952  21.108  13.578  0.00  0.00    -0.246 OA
ATOM     17  OD1 ASP A   1      21.583  20.560  12.264  0.00  0.00    -0.246 OA
ENDBRANCH  14  15
ENDBRANCH  11  14
ENDBRANCH   7  11
ENDBRANCH   6   9
BRANCH   6  18
ATOM     18  CB  LYS A   2      24.034  18.785  15.074  0.00  0.00    +0.029 C 
BRANCH  18  19
ATOM     19  CG  LYS A   2      24.116  20.222  14.588  0.00  0.00    +0.000 C 
BRANCH  19  20
ATOM     20  CD  LYS A   2      23.877  21.190  15.741  0.00  0.00    -0.024 C 
BRANCH  20  21
ATOM     21  CE  LYS A   2      23.871  22.636  15.274  0.00  0.00    -0.086 C 
BRANCH  21  22
ATOM     22  NZ  LYS A   2      23.620  23.578  16.404  0.00  0.00    +0.380 N 
ATOM     23  HZ1 LYS A   2      24.367  23.467  17.119  0.00  0.00    -0.089 HD
ATOM     24  HZ2 LYS A   2      22.696  23.367  16.831  0.00  0.00    -0.089 HD
ATOM     25  HZ3 LYS A   2      23.623  24.555  16.047  0.00  0.00    -0.089 HD
ENDBRANCH  21  22
ENDBRANCH  20  21
ENDBRANCH  19  20
ENDBRANCH  18  19
ENDBRANCH   6  18
ENDBRANCH   2   6
ENDBRANCH   1   4
BRANCH   1  26
ATOM     26  C   PHE A   3      24.905  13.209  13.810  0.00  0.00    +0.241 C 
ATOM     27  O   PHE A   3      25.650  12.727  14.660  0.00  0.00    -0.273 OA
ATOM     28  N   PHE A   4      25.141  13.110  12.503  0.00  0.00    -0.297 N 
ATOM     29  H   PHE A   4      24.472  13.540  11.833  0.00  0.00    +0.150 HD
BRANCH  28  30
ATOM     30  CA  PHE A   4      26.317  12.412  11.985  0.00  0.00    +0.153 C 
BRANCH  30  31
ATOM     31  C   PHE A   4      27.524  13.344  12.011  0.00  0.00    +0.241 C 
ATOM     32  N   ILE A   5      28.554  12.954  12.757  0.00  0.00    -0.298 N 
ATOM     33  H   ILE A   5      28.497  12.044  13.258  0.00  0.00    +0.150 HD
ATOM     34  O   PHE A   4      27.523  14.388  11.363  0.00  0.00    -0.273 OA
BRANCH  32  35
ATOM     35  CA  ILE A   5      29.765  13.763  12.896  0.00  0.00    +0.137 C 
BRANCH  35  36
ATOM     36  C   ILE A   5      30.864  13.396  11.897  0.00  0.00    +0.227 C 
ATOM     37  O   ILE A   5      31.176  12.220  11.709  0.00  0.00    -0.286 OA
ENDBRANCH  35  36
BRANCH  35  38
ATOM     38  CB  ILE A   5      30.349  13.620  14.318  0.00  0.00    +0.026 C 
ATOM     39  CG2 ILE A   5      31.483  14.614  14.516  0.00  0.00    +0.002 C 
BRANCH  38  40
ATOM     40  CG1 ILE A   5      29.257  13.866  15.360  0.00  0.00    +0.002 C 
ATOM     41  CD1 ILE A   5      28.676  15.261  15.313  0.00  0.00    +0.000 C 
ENDBRANCH  38  40
ENDBRANCH  35  38
ENDBRANCH  32  35
ENDBRANCH  30  31
BRANCH  30  42
ATOM     42  CB  PHE A   4      26.061  11.926  10.554  0.00  0.00    +0.055 C 
BRANCH  42  43
ATOM     43  CG  PHE A   4      24.914  10.958  10.442  0.00  0.00    -0.020 A 
ATOM     44  CD2 PHE A   4      24.974   9.719  11.065  0.00  0.00    -0.004 A 
ATOM     45  CE2 PHE A   4      23.903   8.837  10.996  0.00  0.00    -0.000 A 
ATOM     46  CZ  PHE A   4      22.762   9.194  10.300  0.00  0.00    -0.000 A 
ATOM     47  CE1 PHE A   4      22.691  10.424   9.672  0.00  0.00    -0.000 A 
ATOM     48  CD1 PHE A   4      23.765  11.300   9.744  0.00  0.00    -0.004 A 
ENDBRANCH  42  43
ENDBRANCH  30  42
ENDBRANCH  28  30
ENDBRANCH   1  26
BRANCH   1  49
ATOM     49  CB  PHE A   3      22.407  13.324  13.603  0.00  0.00    +0.055 C 
BRANCH  49  50
ATOM     50  CG  PHE A   3      22.063  11.985  14.184  0.00  0.00    -0.020 A 
ATOM     51  CD2 PHE A   3      21.559  11.879  15.467  0.00  0.00    -0.004 A 
ATOM     52  CE2 PHE A   3      21.237  10.643  16.000  0.00  0.00    -0.000 A 
ATOM     53  CZ  PHE A   3      21.420   9.498  15.248  0.00  0.00    -0.000 A 
ATOM     54  CE1 PHE A   3      21.924   9.593  13.968  0.00  0.00    -0.000 A 
ATOM     55  CD1 PHE A   3      22.241  10.827  13.442  0.00  0.00    -0.004 A 
ENDBRANCH  49  50
ENDBRANCH   1  49
TORSDOF 23
REMARK  Name = ../refined-set-2016/4h3f/4h3f_pocket.pdb
REMARK  222 active torsions:
REMARK  status: ('A' for Active; 'I' for Inactive)
REMARK    1  A    between atoms: _1  and  _3
REMARK    2  A    between atoms: _3  and  _4
REMARK    3  A    between atoms: _3  and  _6
REMARK    4  A    between atoms: _6  and  _7
REMARK    5  A    between atoms: _7  and  _8
REMARK    6  A    between atoms: _8  and  _9
REMARK    7  A    between atoms: _9  and  _10
REMARK    8  A    between atoms: _14  and  _16
REMARK    9  A    between atoms: _16  and  _17
REMARK   10  A    between atoms: _16  and  _19
REMARK   11  A    between atoms: _19  and  _20
REMARK   12  A    between atoms: _22  and  _24
REMARK   13  A    between atoms: _24  and  _25
REMARK   14  A    between atoms: _27  and  _29
REMARK   15  A    between atoms: _29  and  _30
REMARK   16  A    between atoms: _29  and  _32
REMARK   17  A    between atoms: _32  and  _33
REMARK   18  A    between atoms: _33  and  _34
REMARK   19  A    between atoms: _39  and  _41
REMARK   20  A    between atoms: _41  and  _42
REMARK   21  A    between atoms: _44  and  _46
REMARK   22  A    between atoms: _46  and  _47
REMARK   23  A    between atoms: _46  and  _49
REMARK   24  A    between atoms: _49  and  _50
REMARK   25  A    between atoms: _55  and  _56
REMARK   26  A    between atoms: _58  and  _60
REMARK   27  A    between atoms: _60  and  _61
REMARK   28  A    between atoms: _60  and  _63
REMARK   29  A    between atoms: _63  and  _64
REMARK   30  A    between atoms: _67  and  _69
REMARK   31  A    between atoms: _69  and  _70
REMARK   32  A    between atoms: _69  and  _72
REMARK   33  A    between atoms: _75  and  _77
REMARK   34  A    between atoms: _77  and  _78
REMARK   35  A    between atoms: _77  and  _80
REMARK   36  A    between atoms: _80  and  _81
REMARK   37  A    between atoms: _84  and  _86
REMARK   38  A    between atoms: _86  and  _87
REMARK   39  A    between atoms: _86  and  _89
REMARK   40  A    between atoms: _89  and  _90
REMARK   41  A    between atoms: _93  and  _95
REMARK   42  A    between atoms: _95  and  _96
REMARK   43  A    between atoms: _98  and  _100
REMARK   44  A    between atoms: _100  and  _101
REMARK   45  A    between atoms: _100  and  _103
REMARK   46  A    between atoms: _103  and  _104
REMARK   47  A    between atoms: _106  and  _108
REMARK   48  A    between atoms: _108  and  _109
REMARK   49  A    between atoms: _108  and  _111
REMARK   50  A    between atoms: _111  and  _112
REMARK   51  A    between atoms: _114  and  _116
REMARK   52  A    between atoms: _116  and  _117
REMARK   53  A    between atoms: _116  and  _119
REMARK   54  A    between atoms: _119  and  _120
REMARK   55  A    between atoms: _125  and  _127
REMARK   56  A    between atoms: _127  and  _128
REMARK   57  A    between atoms: _127  and  _130
REMARK   58  A    between atoms: _130  and  _131
REMARK   59  A    between atoms: _137  and  _139
REMARK   60  A    between atoms: _139  and  _140
REMARK   61  A    between atoms: _143  and  _145
REMARK   62  A    between atoms: _145  and  _146
REMARK   63  A    between atoms: _145  and  _148
REMARK   64  A    between atoms: _151  and  _153
REMARK   65  A    between atoms: _153  and  _154
REMARK   66  A    between atoms: _153  and  _156
REMARK   67  A    between atoms: _159  and  _161
REMARK   68  A    between atoms: _161  and  _162
REMARK   69  A    between atoms: _161  and  _164
REMARK   70  A    between atoms: _164  and  _165
REMARK   71  A    between atoms: _170  and  _171
REMARK   72  A    between atoms: _173  and  _175
REMARK   73  A    between atoms: _175  and  _176
REMARK   74  A    between atoms: _175  and  _178
REMARK   75  A    between atoms: _182  and  _183
REMARK   76  A    between atoms: _188  and  _190
REMARK   77  A    between atoms: _190  and  _191
REMARK   78  A    between atoms: _190  and  _193
REMARK   79  A    between atoms: _193  and  _194
REMARK   80  A    between atoms: _199  and  _200
REMARK   81  A    between atoms: _202  and  _204
REMARK   82  A    between atoms: _204  and  _205
REMARK   83  A    between atoms: _204  and  _207
REMARK   84  A    between atoms: _207  and  _208
REMARK   85  A    between atoms: _211  and  _213
REMARK   86  A    between atoms: _213  and  _214
REMARK   87  A    between atoms: _213  and  _216
REMARK   88  A    between atoms: _216  and  _217
REMARK   89  A    between atoms: _217  and  _218
REMARK   90  A    between atoms: _223  and  _225
REMARK   91  A    between atoms: _225  and  _226
REMARK   92  A    between atoms: _228  and  _230
REMARK   93  A    between atoms: _230  and  _231
REMARK   94  A    between atoms: _230  and  _233
REMARK   95  A    between atoms: _233  and  _234
REMARK   96  A    between atoms: _234  and  _235
REMARK   97  A    between atoms: _235  and  _236
REMARK   98  A    between atoms: _236  and  _237
REMARK   99  A    between atoms: _241  and  _243
REMARK  100  A    between atoms: _243  and  _244
REMARK  101  A    between atoms: _243  and  _246
REMARK  102  A    between atoms: _246  and  _247
REMARK  103  A    between atoms: _257  and  _259
REMARK  104  A    between atoms: _259  and  _260
REMARK  105  A    between atoms: _263  and  _265
REMARK  106  A    between atoms: _265  and  _266
REMARK  107  A    between atoms: _265  and  _268
REMARK  108  A    between atoms: _268  and  _269
REMARK  109  A    between atoms: _272  and  _274
REMARK  110  A    between atoms: _274  and  _275
REMARK  111  A    between atoms: _274  and  _277
REMARK  112  A    between atoms: _277  and  _278
REMARK  113  A    between atoms: _281  and  _283
REMARK  114  A    between atoms: _283  and  _284
REMARK  115  A    between atoms: _283  and  _286
REMARK  116  A    between atoms: _286  and  _287
REMARK  117  A    between atoms: _287  and  _288
REMARK  118  A    between atoms: _288  and  _289
REMARK  119  A    between atoms: _289  and  _290
REMARK  120  A    between atoms: _294  and  _296
REMARK  121  A    between atoms: _296  and  _297
REMARK  122  A    between atoms: _296  and  _299
REMARK  123  A    between atoms: _299  and  _300
REMARK  124  A    between atoms: _306  and  _308
REMARK  125  A    between atoms: _308  and  _309
REMARK  126  A    between atoms: _308  and  _311
REMARK  127  A    between atoms: _311  and  _312
REMARK  128  A    between atoms: _318  and  _320
REMARK  129  A    between atoms: _320  and  _321
REMARK  130  A    between atoms: _320  and  _323
REMARK  131  A    between atoms: _323  and  _324
REMARK  132  A    between atoms: _327  and  _329
REMARK  133  A    between atoms: _329  and  _330
REMARK  134  A    between atoms: _329  and  _332
REMARK  135  A    between atoms: _332  and  _333
REMARK  136  A    between atoms: _335  and  _337
REMARK  137  A    between atoms: _337  and  _338
REMARK  138  A    between atoms: _337  and  _340
REMARK  139  A    between atoms: _340  and  _341
REMARK  140  A    between atoms: _351  and  _353
REMARK  141  A    between atoms: _353  and  _354
REMARK  142  A    between atoms: _356  and  _358
REMARK  143  A    between atoms: _358  and  _359
REMARK  144  A    between atoms: _358  and  _361
REMARK  145  A    between atoms: _361  and  _362
REMARK  146  A    between atoms: _365  and  _367
REMARK  147  A    between atoms: _367  and  _368
REMARK  148  A    between atoms: _367  and  _370
REMARK  149  A    between atoms: _370  and  _371
REMARK  150  A    between atoms: _374  and  _376
REMARK  151  A    between atoms: _376  and  _377
REMARK  152  A    between atoms: _379  and  _381
REMARK  153  A    between atoms: _381  and  _382
REMARK  154  A    between atoms: _381  and  _384
REMARK  155  A    between atoms: _384  and  _385
REMARK  156  A    between atoms: _388  and  _390
REMARK  157  A    between atoms: _390  and  _391
REMARK  158  A    between atoms: _390  and  _393
REMARK  159  A    between atoms: _393  and  _394
REMARK  160  A    between atoms: _397  and  _399
REMARK  161  A    between atoms: _399  and  _400
REMARK  162  A    between atoms: _403  and  _405
REMARK  163  A    between atoms: _405  and  _406
REMARK  164  A    between atoms: _405  and  _408
REMARK  165  A    between atoms: _408  and  _409
REMARK  166  A    between atoms: _409  and  _410
REMARK  167  A    between atoms: _410  and  _411
REMARK  168  A    between atoms: _421  and  _422
REMARK  169  A    between atoms: _427  and  _429
REMARK  170  A    between atoms: _429  and  _430
REMARK  171  A    between atoms: _429  and  _432
REMARK  172  A    between atoms: _432  and  _433
REMARK  173  A    between atoms: _436  and  _438
REMARK  174  A    between atoms: _438  and  _439
REMARK  175  A    between atoms: _438  and  _441
REMARK  176  A    between atoms: _441  and  _442
REMARK  177  A    between atoms: _447  and  _448
REMARK  178  A    between atoms: _450  and  _452
REMARK  179  A    between atoms: _452  and  _453
REMARK  180  A    between atoms: _452  and  _455
REMARK  181  A    between atoms: _455  and  _456
REMARK  182  A    between atoms: _459  and  _461
REMARK  183  A    between atoms: _461  and  _462
REMARK  184  A    between atoms: _461  and  _464
REMARK  185  A    between atoms: _467  and  _469
REMARK  186  A    between atoms: _469  and  _470
REMARK  187  A    between atoms: _469  and  _472
REMARK  188  A    between atoms: _472  and  _473
REMARK  189  A    between atoms: _476  and  _478
REMARK  190  A    between atoms: _478  and  _479
REMARK  191  A    between atoms: _478  and  _481
REMARK  192  A    between atoms: _481  and  _482
REMARK  193  A    between atoms: _484  and  _486
REMARK  194  A    between atoms: _486  and  _487
REMARK  195  A    between atoms: _489  and  _491
REMARK  196  A    between atoms: _491  and  _492
REMARK  197  A    between atoms: _491  and  _494
REMARK  198  A    between atoms: _494  and  _495
REMARK  199  A    between atoms: _498  and  _500
REMARK  200  A    between atoms: _500  and  _501
REMARK  201  A    between atoms: _500  and  _503
REMARK  202  A    between atoms: _503  and  _504
REMARK  203  A    between atoms: _507  and  _509
REMARK  204  A    between atoms: _509  and  _510
REMARK  205  A    between atoms: _509  and  _512
REMARK  206  A    between atoms: _512  and  _513
REMARK  207  A    between atoms: _518  and  _520
REMARK  208  A    between atoms: _520  and  _521
REMARK  209  A    between atoms: _520  and  _523
REMARK  210  A    between atoms: _523  and  _524
REMARK  211  A    between atoms: _524  and  _525
REMARK  212  A    between atoms: _525  and  _526
REMARK  213  A    between atoms: _535  and  _537
REMARK  214  A    between atoms: _537  and  _538
REMARK  215  A    between atoms: _537  and  _540
REMARK  216  A    between atoms: _543  and  _545
REMARK  217  A    between atoms: _545  and  _546
REMARK  218  A    between atoms: _548  and  _550
REMARK  219  A    between atoms: _550  and  _551
REMARK  220  A    between atoms: _554  and  _556
REMARK  221  A    between atoms: _556  and  _557
REMARK  222  A    between atoms: _556  and  _559
REMARK                            x       y       z     vdW  Elec       q    Type
REMARK                         _______ _______ _______ _____ _____    ______ ____
ROOT
ATOM      1  CA  SER A   1      33.035   9.576  13.213  0.00  0.00    +0.163 C 
ENDROOT
BRANCH   1   2
ATOM      2  N   SER A   1      33.635  10.684  12.483  0.00  0.00    -0.237 NA
ATOM      3  H   SER A   1      33.085  11.555  12.339  0.00  0.00    +0.142 HD
ENDBRANCH   1   2
BRANCH   1   4
ATOM      4  C   SER A   1      32.853   8.443  12.214  0.00  0.00    +0.227 C 
ATOM      5  O   SER A   1      32.529   8.684  11.048  0.00  0.00    -0.287 OA
ENDBRANCH   1   4
BRANCH   1   6
ATOM      6  CB  SER A   1      31.677   9.981  13.789  0.00  0.00    +0.162 C 
BRANCH   6   7
ATOM      7  OG  SER A   1      31.039   8.872  14.397  0.00  0.00    -0.380 OA
ATOM      8  H   SER A   1      30.164   9.156  14.762  0.00  0.00    +0.211 HD
ENDBRANCH   6   7
ENDBRANCH   1   6
TORSDOF 4
REMARK  Name = ../refined-set-2016/4h3f/4h3f_pocket.pdb
REMARK  222 active torsions:
REMARK  status: ('A' for Active; 'I' for Inactive)
REMARK    1  A    between atoms: _1  and  _3
REMARK    2  A    between atoms: _3  and  _4
REMARK    3  A    between atoms: _3  and  _6
REMARK    4  A    between atoms: _6  and  _7
REMARK    5  A    between atoms: _7  and  _8
REMARK    6  A    between atoms: _8  and  _9
REMARK    7  A    between atoms: _9  and  _10
REMARK    8  A    between atoms: _14  and  _16
REMARK    9  A    between atoms: _16  and  _17
REMARK   10  A    between atoms: _16  and  _19
REMARK   11  A    between atoms: _19  and  _20
REMARK   12  A    between atoms: _22  and  _24
REMARK   13  A    between atoms: _24  and  _25
REMARK   14  A    between atoms: _27  and  _29
REMARK   15  A    between atoms: _29  and  _30
REMARK   16  A    between atoms: _29  and  _32
REMARK   17  A    between atoms: _32  and  _33
REMARK   18  A    between atoms: _33  and  _34
REMARK   19  A    between atoms: _39  and  _41
REMARK   20  A    between atoms: _41  and  _42
REMARK   21  A    between atoms: _44  and  _46
REMARK   22  A    between atoms: _46  and  _47
REMARK   23  A    between atoms: _46  and  _49
REMARK   24  A    between atoms: _49  and  _50
REMARK   25  A    between atoms: _55  and  _56
REMARK   26  A    between atoms: _58  and  _60
REMARK   27  A    between atoms: _60  and  _61
REMARK   28  A    between atoms: _60  and  _63
REMARK   29  A    between atoms: _63  and  _64
REMARK   30  A    between atoms: _67  and  _69
REMARK   31  A    between atoms: _69  and  _70
REMARK   32  A    between atoms: _69  and  _72
REMARK   33  A    between atoms: _75  and  _77
REMARK   34  A    between atoms: _77  and  _78
REMARK   35  A    between atoms: _77  and  _80
REMARK   36  A    between atoms: _80  and  _81
REMARK   37  A    between atoms: _84  and  _86
REMARK   38  A    between atoms: _86  and  _87
REMARK   39  A    between atoms: _86  and  _89
REMARK   40  A    between atoms: _89  and  _90
REMARK   41  A    between atoms: _93  and  _95
REMARK   42  A    between atoms: _95  and  _96
REMARK   43  A    between atoms: _98  and  _100
REMARK   44  A    between atoms: _100  and  _101
REMARK   45  A    between atoms: _100  and  _103
REMARK   46  A    between atoms: _103  and  _104
REMARK   47  A    between atoms: _106  and  _108
REMARK   48  A    between atoms: _108  and  _109
REMARK   49  A    between atoms: _108  and  _111
REMARK   50  A    between atoms: _111  and  _112
REMARK   51  A    between atoms: _114  and  _116
REMARK   52  A    between atoms: _116  and  _117
REMARK   53  A    between atoms: _116  and  _119
REMARK   54  A    between atoms: _119  and  _120
REMARK   55  A    between atoms: _125  and  _127
REMARK   56  A    between atoms: _127  and  _128
REMARK   57  A    between atoms: _127  and  _130
REMARK   58  A    between atoms: _130  and  _131
REMARK   59  A    between atoms: _137  and  _139
REMARK   60  A    between atoms: _139  and  _140
REMARK   61  A    between atoms: _143  and  _145
REMARK   62  A    between atoms: _145  and  _146
REMARK   63  A    between atoms: _145  and  _148
REMARK   64  A    between atoms: _151  and  _153
REMARK   65  A    between atoms: _153  and  _154
REMARK   66  A    between atoms: _153  and  _156
REMARK   67  A    between atoms: _159  and  _161
REMARK   68  A    between atoms: _161  and  _162
REMARK   69  A    between atoms: _161  and  _164
REMARK   70  A    between atoms: _164  and  _165
REMARK   71  A    between atoms: _170  and  _171
REMARK   72  A    between atoms: _173  and  _175
REMARK   73  A    between atoms: _175  and  _176
REMARK   74  A    between atoms: _175  and  _178
REMARK   75  A    between atoms: _182  and  _183
REMARK   76  A    between atoms: _188  and  _190
REMARK   77  A    between atoms: _190  and  _191
REMARK   78  A    between atoms: _190  and  _193
REMARK   79  A    between atoms: _193  and  _194
REMARK   80  A    between atoms: _199  and  _200
REMARK   81  A    between atoms: _202  and  _204
REMARK   82  A    between atoms: _204  and  _205
REMARK   83  A    between atoms: _204  and  _207
REMARK   84  A    between atoms: _207  and  _208
REMARK   85  A    between atoms: _211  and  _213
REMARK   86  A    between atoms: _213  and  _214
REMARK   87  A    between atoms: _213  and  _216
REMARK   88  A    between atoms: _216  and  _217
REMARK   89  A    between atoms: _217  and  _218
REMARK   90  A    between atoms: _223  and  _225
REMARK   91  A    between atoms: _225  and  _226
REMARK   92  A    between atoms: _228  and  _230
REMARK   93  A    between atoms: _230  and  _231
REMARK   94  A    between atoms: _230  and  _233
REMARK   95  A    between atoms: _233  and  _234
REMARK   96  A    between atoms: _234  and  _235
REMARK   97  A    between atoms: _235  and  _236
REMARK   98  A    between atoms: _236  and  _237
REMARK   99  A    between atoms: _241  and  _243
REMARK  100  A    between atoms: _243  and  _244
REMARK  101  A    between atoms: _243  and  _246
REMARK  102  A    between atoms: _246  and  _247
REMARK  103  A    between atoms: _257  and  _259
REMARK  104  A    between atoms: _259  and  _260
REMARK  105  A    between atoms: _263  and  _265
REMARK  106  A    between atoms: _265  and  _266
REMARK  107  A    between atoms: _265  and  _268
REMARK  108  A    between atoms: _268  and  _269
REMARK  109  A    between atoms: _272  and  _274
REMARK  110  A    between atoms: _274  and  _275
REMARK  111  A    between atoms: _274  and  _277
REMARK  112  A    between atoms: _277  and  _278
REMARK  113  A    between atoms: _281  and  _283
REMARK  114  A    between atoms: _283  and  _284
REMARK  115  A    between atoms: _283  and  _286
REMARK  116  A    between atoms: _286  and  _287
REMARK  117  A    between atoms: _287  and  _288
REMARK  118  A    between atoms: _288  and  _289
REMARK  119  A    between atoms: _289  and  _290
REMARK  120  A    between atoms: _294  and  _296
REMARK  121  A    between atoms: _296  and  _297
REMARK  122  A    between atoms: _296  and  _299
REMARK  123  A    between atoms: _299  and  _300
REMARK  124  A    between atoms: _306  and  _308
REMARK  125  A    between atoms: _308  and  _309
REMARK  126  A    between atoms: _308  and  _311
REMARK  127  A    between atoms: _311  and  _312
REMARK  128  A    between atoms: _318  and  _320
REMARK  129  A    between atoms: _320  and  _321
REMARK  130  A    between atoms: _320  and  _323
REMARK  131  A    between atoms: _323  and  _324
REMARK  132  A    between atoms: _327  and  _329
REMARK  133  A    between atoms: _329  and  _330
REMARK  134  A    between atoms: _329  and  _332
REMARK  135  A    between atoms: _332  and  _333
REMARK  136  A    between atoms: _335  and  _337
REMARK  137  A    between atoms: _337  and  _338
REMARK  138  A    between atoms: _337  and  _340
REMARK  139  A    between atoms: _340  and  _341
REMARK  140  A    between atoms: _351  and  _353
REMARK  141  A    between atoms: _353  and  _354
REMARK  142  A    between atoms: _356  and  _358
REMARK  143  A    between atoms: _358  and  _359
REMARK  144  A    between atoms: _358  and  _361
REMARK  145  A    between atoms: _361  and  _362
REMARK  146  A    between atoms: _365  and  _367
REMARK  147  A    between atoms: _367  and  _368
REMARK  148  A    between atoms: _367  and  _370
REMARK  149  A    between atoms: _370  and  _371
REMARK  150  A    between atoms: _374  and  _376
REMARK  151  A    between atoms: _376  and  _377
REMARK  152  A    between atoms: _379  and  _381
REMARK  153  A    between atoms: _381  and  _382
REMARK  154  A    between atoms: _381  and  _384
REMARK  155  A    between atoms: _384  and  _385
REMARK  156  A    between atoms: _388  and  _390
REMARK  157  A    between atoms: _390  and  _391
REMARK  158  A    between atoms: _390  and  _393
REMARK  159  A    between atoms: _393  and  _394
REMARK  160  A    between atoms: _397  and  _399
REMARK  161  A    between atoms: _399  and  _400
REMARK  162  A    between atoms: _403  and  _405
REMARK  163  A    between atoms: _405  and  _406
REMARK  164  A    between atoms: _405  and  _408
REMARK  165  A    between atoms: _408  and  _409
REMARK  166  A    between atoms: _409  and  _410
REMARK  167  A    between atoms: _410  and  _411
REMARK  168  A    between atoms: _421  and  _422
REMARK  169  A    between atoms: _427  and  _429
REMARK  170  A    between atoms: _429  and  _430
REMARK  171  A    between atoms: _429  and  _432
REMARK  172  A    between atoms: _432  and  _433
REMARK  173  A    between atoms: _436  and  _438
REMARK  174  A    between atoms: _438  and  _439
REMARK  175  A    between atoms: _438  and  _441
REMARK  176  A    between atoms: _441  and  _442
REMARK  177  A    between atoms: _447  and  _448
REMARK  178  A    between atoms: _450  and  _452
REMARK  179  A    between atoms: _452  and  _453
REMARK  180  A    between atoms: _452  and  _455
REMARK  181  A    between atoms: _455  and  _456
REMARK  182  A    between atoms: _459  and  _461
REMARK  183  A    between atoms: _461  and  _462
REMARK  184  A    between atoms: _461  and  _464
REMARK  185  A    between atoms: _467  and  _469
REMARK  186  A    between atoms: _469  and  _470
REMARK  187  A    between atoms: _469  and  _472
REMARK  188  A    between atoms: _472  and  _473
REMARK  189  A    between atoms: _476  and  _478
REMARK  190  A    between atoms: _478  and  _479
REMARK  191  A    between atoms: _478  and  _481
REMARK  192  A    between atoms: _481  and  _482
REMARK  193  A    between atoms: _484  and  _486
REMARK  194  A    between atoms: _486  and  _487
REMARK  195  A    between atoms: _489  and  _491
REMARK  196  A    between atoms: _491  and  _492
REMARK  197  A    between atoms: _491  and  _494
REMARK  198  A    between atoms: _494  and  _495
REMARK  199  A    between atoms: _498  and  _500
REMARK  200  A    between atoms: _500  and  _501
REMARK  201  A    between atoms: _500  and  _503
REMARK  202  A    between atoms: _503  and  _504
REMARK  203  A    between atoms: _507  and  _509
REMARK  204  A    between atoms: _509  and  _510
REMARK  205  A    between atoms: _509  and  _512
REMARK  206  A    between atoms: _512  and  _513
REMARK  207  A    between atoms: _518  and  _520
REMARK  208  A    between atoms: _520  and  _521
REMARK  209  A    between atoms: _520  and  _523
REMARK  210  A    between atoms: _523  and  _524
REMARK  211  A    between atoms: _524  and  _525
REMARK  212  A    between atoms: _525  and  _526
REMARK  213  A    between atoms: _535  and  _537
REMARK  214  A    between atoms: _537  and  _538
REMARK  215  A    between atoms: _537  and  _540
REMARK  216  A    between atoms: _543  and  _545
REMARK  217  A    between atoms: _545  and  _546
REMARK  218  A    between atoms: _548  and  _550
REMARK  219  A    between atoms: _550  and  _551
REMARK  220  A    between atoms: _554  and  _556
REMARK  221  A    between atoms: _556  and  _557
REMARK  222  A    between atoms: _556  and  _559
REMARK                            x       y       z     vdW  Elec       q    Type
REMARK                         _______ _______ _______ _____ _____    ______ ____
ROOT
ATOM      1  CG  TRP A   1      28.962   6.229  15.068  0.00  0.00    -0.002 A 
ATOM      2  CD1 TRP A   1      29.960   6.617  15.912  0.00  0.00    +0.068 A 
ATOM      3  NE1 TRP A   1      29.620   7.788  16.536  0.00  0.00    -0.352 N 
ATOM      4  HE1 TRP A   1      30.205   8.294  17.231  0.00  0.00    +0.166 HD
ATOM      5  CE2 TRP A   1      28.384   8.186  16.096  0.00  0.00    +0.056 A 
ATOM      6  CZ2 TRP A   1      27.626   9.304  16.435  0.00  0.00    +0.017 A 
ATOM      7  CH2 TRP A   1      26.408   9.446  15.828  0.00  0.00    +0.001 A 
ATOM      8  CZ3 TRP A   1      25.937   8.503  14.901  0.00  0.00    +0.000 A 
ATOM      9  CE3 TRP A   1      26.687   7.401  14.566  0.00  0.00    +0.001 A 
ATOM     10  CD2 TRP A   1      27.938   7.227  15.168  0.00  0.00    +0.013 A 
ENDROOT
BRANCH   1  11
ATOM     11  CB  TRP A   1      28.928   4.992  14.252  0.00  0.00    +0.053 C 
BRANCH  11  12
ATOM     12  CA  TRP A   1      29.392   5.120  12.791  0.00  0.00    +0.137 C 
BRANCH  12  13
ATOM     13  N   TRP A   1      30.654   5.837  12.673  0.00  0.00    -0.239 NA
ATOM     14  H   TRP A   1      30.800   6.744  13.161  0.00  0.00    +0.142 HD
ENDBRANCH  12  13
BRANCH  12  15
ATOM     15  C   TRP A   1      28.291   5.709  11.923  0.00  0.00    +0.224 C 
ATOM     16  O   TRP A   1      28.268   6.908  11.626  0.00  0.00    -0.287 OA
ENDBRANCH  12  15
ENDBRANCH  11  12
ENDBRANCH   1  11
TORSDOF 4
REMARK  Name = ../refined-set-2016/4h3f/4h3f_pocket.pdb
REMARK  222 active torsions:
REMARK  status: ('A' for Active; 'I' for Inactive)
REMARK    1  A    between atoms: _1  and  _3
REMARK    2  A    between atoms: _3  and  _4
REMARK    3  A    between atoms: _3  and  _6
REMARK    4  A    between atoms: _6  and  _7
REMARK    5  A    between atoms: _7  and  _8
REMARK    6  A    between atoms: _8  and  _9
REMARK    7  A    between atoms: _9  and  _10
REMARK    8  A    between atoms: _14  and  _16
REMARK    9  A    between atoms: _16  and  _17
REMARK   10  A    between atoms: _16  and  _19
REMARK   11  A    between atoms: _19  and  _20
REMARK   12  A    between atoms: _22  and  _24
REMARK   13  A    between atoms: _24  and  _25
REMARK   14  A    between atoms: _27  and  _29
REMARK   15  A    between atoms: _29  and  _30
REMARK   16  A    between atoms: _29  and  _32
REMARK   17  A    between atoms: _32  and  _33
REMARK   18  A    between atoms: _33  and  _34
REMARK   19  A    between atoms: _39  and  _41
REMARK   20  A    between atoms: _41  and  _42
REMARK   21  A    between atoms: _44  and  _46
REMARK   22  A    between atoms: _46  and  _47
REMARK   23  A    between atoms: _46  and  _49
REMARK   24  A    between atoms: _49  and  _50
REMARK   25  A    between atoms: _55  and  _56
REMARK   26  A    between atoms: _58  and  _60
REMARK   27  A    between atoms: _60  and  _61
REMARK   28  A    between atoms: _60  and  _63
REMARK   29  A    between atoms: _63  and  _64
REMARK   30  A    between atoms: _67  and  _69
REMARK   31  A    between atoms: _69  and  _70
REMARK   32  A    between atoms: _69  and  _72
REMARK   33  A    between atoms: _75  and  _77
REMARK   34  A    between atoms: _77  and  _78
REMARK   35  A    between atoms: _77  and  _80
REMARK   36  A    between atoms: _80  and  _81
REMARK   37  A    between atoms: _84  and  _86
REMARK   38  A    between atoms: _86  and  _87
REMARK   39  A    between atoms: _86  and  _89
REMARK   40  A    between atoms: _89  and  _90
REMARK   41  A    between atoms: _93  and  _95
REMARK   42  A    between atoms: _95  and  _96
REMARK   43  A    between atoms: _98  and  _100
REMARK   44  A    between atoms: _100  and  _101
REMARK   45  A    between atoms: _100  and  _103
REMARK   46  A    between atoms: _103  and  _104
REMARK   47  A    between atoms: _106  and  _108
REMARK   48  A    between atoms: _108  and  _109
REMARK   49  A    between atoms: _108  and  _111
REMARK   50  A    between atoms: _111  and  _112
REMARK   51  A    between atoms: _114  and  _116
REMARK   52  A    between atoms: _116  and  _117
REMARK   53  A    between atoms: _116  and  _119
REMARK   54  A    between atoms: _119  and  _120
REMARK   55  A    between atoms: _125  and  _127
REMARK   56  A    between atoms: _127  and  _128
REMARK   57  A    between atoms: _127  and  _130
REMARK   58  A    between atoms: _130  and  _131
REMARK   59  A    between atoms: _137  and  _139
REMARK   60  A    between atoms: _139  and  _140
REMARK   61  A    between atoms: _143  and  _145
REMARK   62  A    between atoms: _145  and  _146
REMARK   63  A    between atoms: _145  and  _148
REMARK   64  A    between atoms: _151  and  _153
REMARK   65  A    between atoms: _153  and  _154
REMARK   66  A    between atoms: _153  and  _156
REMARK   67  A    between atoms: _159  and  _161
REMARK   68  A    between atoms: _161  and  _162
REMARK   69  A    between atoms: _161  and  _164
REMARK   70  A    between atoms: _164  and  _165
REMARK   71  A    between atoms: _170  and  _171
REMARK   72  A    between atoms: _173  and  _175
REMARK   73  A    between atoms: _175  and  _176
REMARK   74  A    between atoms: _175  and  _178
REMARK   75  A    between atoms: _182  and  _183
REMARK   76  A    between atoms: _188  and  _190
REMARK   77  A    between atoms: _190  and  _191
REMARK   78  A    between atoms: _190  and  _193
REMARK   79  A    between atoms: _193  and  _194
REMARK   80  A    between atoms: _199  and  _200
REMARK   81  A    between atoms: _202  and  _204
REMARK   82  A    between atoms: _204  and  _205
REMARK   83  A    between atoms: _204  and  _207
REMARK   84  A    between atoms: _207  and  _208
REMARK   85  A    between atoms: _211  and  _213
REMARK   86  A    between atoms: _213  and  _214
REMARK   87  A    between atoms: _213  and  _216
REMARK   88  A    between atoms: _216  and  _217
REMARK   89  A    between atoms: _217  and  _218
REMARK   90  A    between atoms: _223  and  _225
REMARK   91  A    between atoms: _225  and  _226
REMARK   92  A    between atoms: _228  and  _230
REMARK   93  A    between atoms: _230  and  _231
REMARK   94  A    between atoms: _230  and  _233
REMARK   95  A    between atoms: _233  and  _234
REMARK   96  A    between atoms: _234  and  _235
REMARK   97  A    between atoms: _235  and  _236
REMARK   98  A    between atoms: _236  and  _237
REMARK   99  A    between atoms: _241  and  _243
REMARK  100  A    between atoms: _243  and  _244
REMARK  101  A    between atoms: _243  and  _246
REMARK  102  A    between atoms: _246  and  _247
REMARK  103  A    between atoms: _257  and  _259
REMARK  104  A    between atoms: _259  and  _260
REMARK  105  A    between atoms: _263  and  _265
REMARK  106  A    between atoms: _265  and  _266
REMARK  107  A    between atoms: _265  and  _268
REMARK  108  A    between atoms: _268  and  _269
REMARK  109  A    between atoms: _272  and  _274
REMARK  110  A    between atoms: _274  and  _275
REMARK  111  A    between atoms: _274  and  _277
REMARK  112  A    between atoms: _277  and  _278
REMARK  113  A    between atoms: _281  and  _283
REMARK  114  A    between atoms: _283  and  _284
REMARK  115  A    between atoms: _283  and  _286
REMARK  116  A    between atoms: _286  and  _287
REMARK  117  A    between atoms: _287  and  _288
REMARK  118  A    between atoms: _288  and  _289
REMARK  119  A    between atoms: _289  and  _290
REMARK  120  A    between atoms: _294  and  _296
REMARK  121  A    between atoms: _296  and  _297
REMARK  122  A    between atoms: _296  and  _299
REMARK  123  A    between atoms: _299  and  _300
REMARK  124  A    between atoms: _306  and  _308
REMARK  125  A    between atoms: _308  and  _309
REMARK  126  A    between atoms: _308  and  _311
REMARK  127  A    between atoms: _311  and  _312
REMARK  128  A    between atoms: _318  and  _320
REMARK  129  A    between atoms: _320  and  _321
REMARK  130  A    between atoms: _320  and  _323
REMARK  131  A    between atoms: _323  and  _324
REMARK  132  A    between atoms: _327  and  _329
REMARK  133  A    between atoms: _329  and  _330
REMARK  134  A    between atoms: _329  and  _332
REMARK  135  A    between atoms: _332  and  _333
REMARK  136  A    between atoms: _335  and  _337
REMARK  137  A    between atoms: _337  and  _338
REMARK  138  A    between atoms: _337  and  _340
REMARK  139  A    between atoms: _340  and  _341
REMARK  140  A    between atoms: _351  and  _353
REMARK  141  A    between atoms: _353  and  _354
REMARK  142  A    between atoms: _356  and  _358
REMARK  143  A    between atoms: _358  and  _359
REMARK  144  A    between atoms: _358  and  _361
REMARK  145  A    between atoms: _361  and  _362
REMARK  146  A    between atoms: _365  and  _367
REMARK  147  A    between atoms: _367  and  _368
REMARK  148  A    between atoms: _367  and  _370
REMARK  149  A    between atoms: _370  and  _371
REMARK  150  A    between atoms: _374  and  _376
REMARK  151  A    between atoms: _376  and  _377
REMARK  152  A    between atoms: _379  and  _381
REMARK  153  A    between atoms: _381  and  _382
REMARK  154  A    between atoms: _381  and  _384
REMARK  155  A    between atoms: _384  and  _385
REMARK  156  A    between atoms: _388  and  _390
REMARK  157  A    between atoms: _390  and  _391
REMARK  158  A    between atoms: _390  and  _393
REMARK  159  A    between atoms: _393  and  _394
REMARK  160  A    between atoms: _397  and  _399
REMARK  161  A    between atoms: _399  and  _400
REMARK  162  A    between atoms: _403  and  _405
REMARK  163  A    between atoms: _405  and  _406
REMARK  164  A    between atoms: _405  and  _408
REMARK  165  A    between atoms: _408  and  _409
REMARK  166  A    between atoms: _409  and  _410
REMARK  167  A    between atoms: _410  and  _411
REMARK  168  A    between atoms: _421  and  _422
REMARK  169  A    between atoms: _427  and  _429
REMARK  170  A    between atoms: _429  and  _430
REMARK  171  A    between atoms: _429  and  _432
REMARK  172  A    between atoms: _432  and  _433
REMARK  173  A    between atoms: _436  and  _438
REMARK  174  A    between atoms: _438  and  _439
REMARK  175  A    between atoms: _438  and  _441
REMARK  176  A    between atoms: _441  and  _442
REMARK  177  A    between atoms: _447  and  _448
REMARK  178  A    between atoms: _450  and  _452
REMARK  179  A    between atoms: _452  and  _453
REMARK  180  A    between atoms: _452  and  _455
REMARK  181  A    between atoms: _455  and  _456
REMARK  182  A    between atoms: _459  and  _461
REMARK  183  A    between atoms: _461  and  _462
REMARK  184  A    between atoms: _461  and  _464
REMARK  185  A    between atoms: _467  and  _469
REMARK  186  A    between atoms: _469  and  _470
REMARK  187  A    between atoms: _469  and  _472
REMARK  188  A    between atoms: _472  and  _473
REMARK  189  A    between atoms: _476  and  _478
REMARK  190  A    between atoms: _478  and  _479
REMARK  191  A    between atoms: _478  and  _481
REMARK  192  A    between atoms: _481  and  _482
REMARK  193  A    between atoms: _484  and  _486
REMARK  194  A    between atoms: _486  and  _487
REMARK  195  A    between atoms: _489  and  _491
REMARK  196  A    between atoms: _491  and  _492
REMARK  197  A    between atoms: _491  and  _494
REMARK  198  A    between atoms: _494  and  _495
REMARK  199  A    between atoms: _498  and  _500
REMARK  200  A    between atoms: _500  and  _501
REMARK  201  A    between atoms: _500  and  _503
REMARK  202  A    between atoms: _503  and  _504
REMARK  203  A    between atoms: _507  and  _509
REMARK  204  A    between atoms: _509  and  _510
REMARK  205  A    between atoms: _509  and  _512
REMARK  206  A    between atoms: _512  and  _513
REMARK  207  A    between atoms: _518  and  _520
REMARK  208  A    between atoms: _520  and  _521
REMARK  209  A    between atoms: _520  and  _523
REMARK  210  A    between atoms: _523  and  _524
REMARK  211  A    between atoms: _524  and  _525
REMARK  212  A    between atoms: _525  and  _526
REMARK  213  A    between atoms: _535  and  _537
REMARK  214  A    between atoms: _537  and  _538
REMARK  215  A    between atoms: _537  and  _540
REMARK  216  A    between atoms: _543  and  _545
REMARK  217  A    between atoms: _545  and  _546
REMARK  218  A    between atoms: _548  and  _550
REMARK  219  A    between atoms: _550  and  _551
REMARK  220  A    between atoms: _554  and  _556
REMARK  221  A    between atoms: _556  and  _557
REMARK  222  A    between atoms: _556  and  _559
REMARK                            x       y       z     vdW  Elec       q    Type
REMARK                         _______ _______ _______ _____ _____    ______ ____
ROOT
ATOM      1  CA  LEU A   3      21.676   1.188  18.953  0.00  0.00    +0.149 C 
ENDROOT
BRANCH   1   2
ATOM      2  C   LEU A   3      21.263   1.607  20.370  0.00  0.00    +0.241 C 
ATOM      3  O   LEU A   3      22.083   1.610  21.291  0.00  0.00    -0.273 OA
ATOM      4  N   GLY A   4      19.997   1.990  20.528  0.00  0.00    -0.295 N 
ATOM      5  H   GLY A   4      19.355   1.997  19.710  0.00  0.00    +0.150 HD
BRANCH   4   6
ATOM      6  CA  GLY A   4      19.504   2.399  21.835  0.00  0.00    +0.176 C 
BRANCH   6   7
ATOM      7  C   GLY A   4      19.227   1.165  22.664  0.00  0.00    +0.243 C 
ATOM      8  N   LEU A   5      19.957   1.016  23.761  0.00  0.00    -0.298 N 
ATOM      9  H   LEU A   5      20.641   1.754  24.025  0.00  0.00    +0.150 HD
ATOM     10  O   GLY A   4      18.347   0.364  22.335  0.00  0.00    -0.273 OA
BRANCH   8  11
ATOM     11  CA  LEU A   5      19.816  -0.160  24.599  0.00  0.00    +0.137 C 
BRANCH  11  12
ATOM     12  C   LEU A   5      18.968   0.000  25.855  0.00  0.00    +0.227 C 
ATOM     13  O   LEU A   5      18.844  -0.947  26.625  0.00  0.00    -0.286 OA
ENDBRANCH  11  12
BRANCH  11  14
ATOM     14  CB  LEU A   5      21.208  -0.665  24.983  0.00  0.00    +0.028 C 
BRANCH  14  15
ATOM     15  CG  LEU A   5      22.013  -1.176  23.793  0.00  0.00    +0.002 C 
ATOM     16  CD2 LEU A   5      23.481  -1.328  24.196  0.00  0.00    +0.000 C 
ATOM     17  CD1 LEU A   5      21.448  -2.521  23.336  0.00  0.00    +0.000 C 
ENDBRANCH  14  15
ENDBRANCH  11  14
ENDBRANCH   8  11
ENDBRANCH   6   7
ENDBRANCH   4   6
ENDBRANCH   1   2
BRANCH   1  19
ATOM     18  C   ILE A   2      21.866   3.052  17.389  0.00  0.00    +0.241 C 
ATOM     19  N   LEU A   3      22.405   2.301  18.351  0.00  0.00    -0.297 N 
ATOM     20  H   LEU A   3      23.368   2.514  18.680  0.00  0.00    +0.150 HD
ATOM     21  O   ILE A   2      20.746   2.846  16.915  0.00  0.00    -0.273 OA
BRANCH  18  22
ATOM     22  CA  ILE A   2      22.714   4.203  16.884  0.00  0.00    +0.148 C 
BRANCH  22  24
ATOM     23  C   GLY A   1      23.773   4.420  14.702  0.00  0.00    +0.240 C 
ATOM     24  N   ILE A   2      22.669   4.332  15.432  0.00  0.00    -0.297 N 
ATOM     25  H   ILE A   2      21.745   4.356  14.955  0.00  0.00    +0.150 HD
ATOM     26  O   GLY A   1      24.907   4.393  15.182  0.00  0.00    -0.274 OA
BRANCH  23  27
ATOM     27  CA  GLY A   1      23.581   4.562  13.209  0.00  0.00    +0.169 C 
BRANCH  27  28
ATOM     28  N   GLY A   1      24.862   4.725  12.547  0.00  0.00    -0.236 NA
ATOM     29  H   GLY A   1      25.745   4.597  13.081  0.00  0.00    +0.142 HD
ENDBRANCH  27  28
ENDBRANCH  23  27
ENDBRANCH  22  24
BRANCH  22  30
ATOM     30  CB  ILE A   2      22.202   5.488  17.559  0.00  0.00    +0.027 C 
ATOM     31  CG2 ILE A   2      22.134   5.296  19.072  0.00  0.00    +0.002 C 
BRANCH  30  32
ATOM     32  CG1 ILE A   2      23.106   6.657  17.181  0.00  0.00    +0.002 C 
ATOM     33  CD1 ILE A   2      22.797   7.942  17.928  0.00  0.00    +0.000 C 
ENDBRANCH  30  32
ENDBRANCH  22  30
ENDBRANCH  18  22
ENDBRANCH   1  19
BRANCH   1  34
ATOM     34  CB  LEU A   3      22.548  -0.079  19.022  0.00  0.00    +0.029 C 
BRANCH  34  35
ATOM     35  CG  LEU A   3      21.902  -1.306  19.685  0.00  0.00    +0.002 C 
ATOM     36  CD2 LEU A   3      22.883  -2.456  19.689  0.00  0.00    +0.000 C 
ATOM     37  CD1 LEU A   3      20.631  -1.697  18.941  0.00  0.00    +0.000 C 
ENDBRANCH  34  35
ENDBRANCH   1  34
TORSDOF 16
REMARK  Name = ../refined-set-2016/4h3f/4h3f_pocket.pdb
REMARK  222 active torsions:
REMARK  status: ('A' for Active; 'I' for Inactive)
REMARK    1  A    between atoms: _1  and  _3
REMARK    2  A    between atoms: _3  and  _4
REMARK    3  A    between atoms: _3  and  _6
REMARK    4  A    between atoms: _6  and  _7
REMARK    5  A    between atoms: _7  and  _8
REMARK    6  A    between atoms: _8  and  _9
REMARK    7  A    between atoms: _9  and  _10
REMARK    8  A    between atoms: _14  and  _16
REMARK    9  A    between atoms: _16  and  _17
REMARK   10  A    between atoms: _16  and  _19
REMARK   11  A    between atoms: _19  and  _20
REMARK   12  A    between atoms: _22  and  _24
REMARK   13  A    between atoms: _24  and  _25
REMARK   14  A    between atoms: _27  and  _29
REMARK   15  A    between atoms: _29  and  _30
REMARK   16  A    between atoms: _29  and  _32
REMARK   17  A    between atoms: _32  and  _33
REMARK   18  A    between atoms: _33  and  _34
REMARK   19  A    between atoms: _39  and  _41
REMARK   20  A    between atoms: _41  and  _42
REMARK   21  A    between atoms: _44  and  _46
REMARK   22  A    between atoms: _46  and  _47
REMARK   23  A    between atoms: _46  and  _49
REMARK   24  A    between atoms: _49  and  _50
REMARK   25  A    between atoms: _55  and  _56
REMARK   26  A    between atoms: _58  and  _60
REMARK   27  A    between atoms: _60  and  _61
REMARK   28  A    between atoms: _60  and  _63
REMARK   29  A    between atoms: _63  and  _64
REMARK   30  A    between atoms: _67  and  _69
REMARK   31  A    between atoms: _69  and  _70
REMARK   32  A    between atoms: _69  and  _72
REMARK   33  A    between atoms: _75  and  _77
REMARK   34  A    between atoms: _77  and  _78
REMARK   35  A    between atoms: _77  and  _80
REMARK   36  A    between atoms: _80  and  _81
REMARK   37  A    between atoms: _84  and  _86
REMARK   38  A    between atoms: _86  and  _87
REMARK   39  A    between atoms: _86  and  _89
REMARK   40  A    between atoms: _89  and  _90
REMARK   41  A    between atoms: _93  and  _95
REMARK   42  A    between atoms: _95  and  _96
REMARK   43  A    between atoms: _98  and  _100
REMARK   44  A    between atoms: _100  and  _101
REMARK   45  A    between atoms: _100  and  _103
REMARK   46  A    between atoms: _103  and  _104
REMARK   47  A    between atoms: _106  and  _108
REMARK   48  A    between atoms: _108  and  _109
REMARK   49  A    between atoms: _108  and  _111
REMARK   50  A    between atoms: _111  and  _112
REMARK   51  A    between atoms: _114  and  _116
REMARK   52  A    between atoms: _116  and  _117
REMARK   53  A    between atoms: _116  and  _119
REMARK   54  A    between atoms: _119  and  _120
REMARK   55  A    between atoms: _125  and  _127
REMARK   56  A    between atoms: _127  and  _128
REMARK   57  A    between atoms: _127  and  _130
REMARK   58  A    between atoms: _130  and  _131
REMARK   59  A    between atoms: _137  and  _139
REMARK   60  A    between atoms: _139  and  _140
REMARK   61  A    between atoms: _143  and  _145
REMARK   62  A    between atoms: _145  and  _146
REMARK   63  A    between atoms: _145  and  _148
REMARK   64  A    between atoms: _151  and  _153
REMARK   65  A    between atoms: _153  and  _154
REMARK   66  A    between atoms: _153  and  _156
REMARK   67  A    between atoms: _159  and  _161
REMARK   68  A    between atoms: _161  and  _162
REMARK   69  A    between atoms: _161  and  _164
REMARK   70  A    between atoms: _164  and  _165
REMARK   71  A    between atoms: _170  and  _171
REMARK   72  A    between atoms: _173  and  _175
REMARK   73  A    between atoms: _175  and  _176
REMARK   74  A    between atoms: _175  and  _178
REMARK   75  A    between atoms: _182  and  _183
REMARK   76  A    between atoms: _188  and  _190
REMARK   77  A    between atoms: _190  and  _191
REMARK   78  A    between atoms: _190  and  _193
REMARK   79  A    between atoms: _193  and  _194
REMARK   80  A    between atoms: _199  and  _200
REMARK   81  A    between atoms: _202  and  _204
REMARK   82  A    between atoms: _204  and  _205
REMARK   83  A    between atoms: _204  and  _207
REMARK   84  A    between atoms: _207  and  _208
REMARK   85  A    between atoms: _211  and  _213
REMARK   86  A    between atoms: _213  and  _214
REMARK   87  A    between atoms: _213  and  _216
REMARK   88  A    between atoms: _216  and  _217
REMARK   89  A    between atoms: _217  and  _218
REMARK   90  A    between atoms: _223  and  _225
REMARK   91  A    between atoms: _225  and  _226
REMARK   92  A    between atoms: _228  and  _230
REMARK   93  A    between atoms: _230  and  _231
REMARK   94  A    between atoms: _230  and  _233
REMARK   95  A    between atoms: _233  and  _234
REMARK   96  A    between atoms: _234  and  _235
REMARK   97  A    between atoms: _235  and  _236
REMARK   98  A    between atoms: _236  and  _237
REMARK   99  A    between atoms: _241  and  _243
REMARK  100  A    between atoms: _243  and  _244
REMARK  101  A    between atoms: _243  and  _246
REMARK  102  A    between atoms: _246  and  _247
REMARK  103  A    between atoms: _257  and  _259
REMARK  104  A    between atoms: _259  and  _260
REMARK  105  A    between atoms: _263  and  _265
REMARK  106  A    between atoms: _265  and  _266
REMARK  107  A    between atoms: _265  and  _268
REMARK  108  A    between atoms: _268  and  _269
REMARK  109  A    between atoms: _272  and  _274
REMARK  110  A    between atoms: _274  and  _275
REMARK  111  A    between atoms: _274  and  _277
REMARK  112  A    between atoms: _277  and  _278
REMARK  113  A    between atoms: _281  and  _283
REMARK  114  A    between atoms: _283  and  _284
REMARK  115  A    between atoms: _283  and  _286
REMARK  116  A    between atoms: _286  and  _287
REMARK  117  A    between atoms: _287  and  _288
REMARK  118  A    between atoms: _288  and  _289
REMARK  119  A    between atoms: _289  and  _290
REMARK  120  A    between atoms: _294  and  _296
REMARK  121  A    between atoms: _296  and  _297
REMARK  122  A    between atoms: _296  and  _299
REMARK  123  A    between atoms: _299  and  _300
REMARK  124  A    between atoms: _306  and  _308
REMARK  125  A    between atoms: _308  and  _309
REMARK  126  A    between atoms: _308  and  _311
REMARK  127  A    between atoms: _311  and  _312
REMARK  128  A    between atoms: _318  and  _320
REMARK  129  A    between atoms: _320  and  _321
REMARK  130  A    between atoms: _320  and  _323
REMARK  131  A    between atoms: _323  and  _324
REMARK  132  A    between atoms: _327  and  _329
REMARK  133  A    between atoms: _329  and  _330
REMARK  134  A    between atoms: _329  and  _332
REMARK  135  A    between atoms: _332  and  _333
REMARK  136  A    between atoms: _335  and  _337
REMARK  137  A    between atoms: _337  and  _338
REMARK  138  A    between atoms: _337  and  _340
REMARK  139  A    between atoms: _340  and  _341
REMARK  140  A    between atoms: _351  and  _353
REMARK  141  A    between atoms: _353  and  _354
REMARK  142  A    between atoms: _356  and  _358
REMARK  143  A    between atoms: _358  and  _359
REMARK  144  A    between atoms: _358  and  _361
REMARK  145  A    between atoms: _361  and  _362
REMARK  146  A    between atoms: _365  and  _367
REMARK  147  A    between atoms: _367  and  _368
REMARK  148  A    between atoms: _367  and  _370
REMARK  149  A    between atoms: _370  and  _371
REMARK  150  A    between atoms: _374  and  _376
REMARK  151  A    between atoms: _376  and  _377
REMARK  152  A    between atoms: _379  and  _381
REMARK  153  A    between atoms: _381  and  _382
REMARK  154  A    between atoms: _381  and  _384
REMARK  155  A    between atoms: _384  and  _385
REMARK  156  A    between atoms: _388  and  _390
REMARK  157  A    between atoms: _390  and  _391
REMARK  158  A    between atoms: _390  and  _393
REMARK  159  A    between atoms: _393  and  _394
REMARK  160  A    between atoms: _397  and  _399
REMARK  161  A    between atoms: _399  and  _400
REMARK  162  A    between atoms: _403  and  _405
REMARK  163  A    between atoms: _405  and  _406
REMARK  164  A    between atoms: _405  and  _408
REMARK  165  A    between atoms: _408  and  _409
REMARK  166  A    between atoms: _409  and  _410
REMARK  167  A    between atoms: _410  and  _411
REMARK  168  A    between atoms: _421  and  _422
REMARK  169  A    between atoms: _427  and  _429
REMARK  170  A    between atoms: _429  and  _430
REMARK  171  A    between atoms: _429  and  _432
REMARK  172  A    between atoms: _432  and  _433
REMARK  173  A    between atoms: _436  and  _438
REMARK  174  A    between atoms: _438  and  _439
REMARK  175  A    between atoms: _438  and  _441
REMARK  176  A    between atoms: _441  and  _442
REMARK  177  A    between atoms: _447  and  _448
REMARK  178  A    between atoms: _450  and  _452
REMARK  179  A    between atoms: _452  and  _453
REMARK  180  A    between atoms: _452  and  _455
REMARK  181  A    between atoms: _455  and  _456
REMARK  182  A    between atoms: _459  and  _461
REMARK  183  A    between atoms: _461  and  _462
REMARK  184  A    between atoms: _461  and  _464
REMARK  185  A    between atoms: _467  and  _469
REMARK  186  A    between atoms: _469  and  _470
REMARK  187  A    between atoms: _469  and  _472
REMARK  188  A    between atoms: _472  and  _473
REMARK  189  A    between atoms: _476  and  _478
REMARK  190  A    between atoms: _478  and  _479
REMARK  191  A    between atoms: _478  and  _481
REMARK  192  A    between atoms: _481  and  _482
REMARK  193  A    between atoms: _484  and  _486
REMARK  194  A    between atoms: _486  and  _487
REMARK  195  A    between atoms: _489  and  _491
REMARK  196  A    between atoms: _491  and  _492
REMARK  197  A    between atoms: _491  and  _494
REMARK  198  A    between atoms: _494  and  _495
REMARK  199  A    between atoms: _498  and  _500
REMARK  200  A    between atoms: _500  and  _501
REMARK  201  A    between atoms: _500  and  _503
REMARK  202  A    between atoms: _503  and  _504
REMARK  203  A    between atoms: _507  and  _509
REMARK  204  A    between atoms: _509  and  _510
REMARK  205  A    between atoms: _509  and  _512
REMARK  206  A    between atoms: _512  and  _513
REMARK  207  A    between atoms: _518  and  _520
REMARK  208  A    between atoms: _520  and  _521
REMARK  209  A    between atoms: _520  and  _523
REMARK  210  A    between atoms: _523  and  _524
REMARK  211  A    between atoms: _524  and  _525
REMARK  212  A    between atoms: _525  and  _526
REMARK  213  A    between atoms: _535  and  _537
REMARK  214  A    between atoms: _537  and  _538
REMARK  215  A    between atoms: _537  and  _540
REMARK  216  A    between atoms: _543  and  _545
REMARK  217  A    between atoms: _545  and  _546
REMARK  218  A    between atoms: _548  and  _550
REMARK  219  A    between atoms: _550  and  _551
REMARK  220  A    between atoms: _554  and  _556
REMARK  221  A    between atoms: _556  and  _557
REMARK  222  A    between atoms: _556  and  _559
REMARK                            x       y       z     vdW  Elec       q    Type
REMARK                         _______ _______ _______ _____ _____    ______ ____
ROOT
ATOM      1  CA  ARG A   3      10.258   7.154  20.122  0.00  0.00    +0.149 C 
ENDROOT
BRANCH   1   2
ATOM      2  C   ARG A   3       9.642   6.437  18.933  0.00  0.00    +0.244 C 
ATOM      3  N   PRO A   4       8.421   6.825  18.540  0.00  0.00    -0.273 N 
ATOM      4  CA  PRO A   4       7.569   7.882  19.108  0.00  0.00    +0.140 C 
ATOM      5  CB  PRO A   4       6.523   8.089  18.020  0.00  0.00    +0.030 C 
ATOM      6  CG  PRO A   4       6.322   6.671  17.514  0.00  0.00    +0.024 C 
ATOM      7  CD  PRO A   4       7.765   6.181  17.385  0.00  0.00    +0.094 C 
ATOM      8  O   ARG A   3      10.267   5.565  18.335  0.00  0.00    -0.273 OA
BRANCH   4   9
ATOM      9  C   PRO A   4       6.919   7.587  20.461  0.00  0.00    +0.227 C 
ATOM     10  O   PRO A   4       6.484   8.507  21.156  0.00  0.00    -0.286 OA
ENDBRANCH   4   9
ENDBRANCH   1   2
BRANCH   1  13
ATOM     11  C   ALA A   2      10.547   5.799  22.125  0.00  0.00    +0.241 C 
ATOM     12  O   ALA A   2       9.526   6.257  22.643  0.00  0.00    -0.273 OA
ATOM     13  N   ARG A   3      10.974   6.171  20.924  0.00  0.00    -0.297 N 
ATOM     14  H   ARG A   3      11.845   5.748  20.545  0.00  0.00    +0.150 HD
BRANCH  11  15
ATOM     15  CA  ALA A   2      11.394   4.760  22.855  0.00  0.00    +0.149 C 
ATOM     16  CB  ALA A   2      10.937   3.363  22.487  0.00  0.00    +0.031 C 
BRANCH  15  18
ATOM     17  C   ILE A   1      11.809   6.031  24.864  0.00  0.00    +0.238 C 
ATOM     18  N   ALA A   2      11.262   4.965  24.291  0.00  0.00    -0.297 N 
ATOM     19  H   ALA A   2      10.739   4.276  24.868  0.00  0.00    +0.150 HD
ATOM     20  O   ILE A   1      12.455   6.869  24.227  0.00  0.00    -0.274 OA
BRANCH  17  21
ATOM     21  CA  ILE A   1      11.594   6.184  26.368  0.00  0.00    +0.145 C 
BRANCH  21  22
ATOM     22  N   ILE A   1      11.076   4.992  27.030  0.00  0.00    -0.238 NA
ATOM     23  H   ILE A   1      11.712   4.194  27.232  0.00  0.00    +0.142 HD
ENDBRANCH  21  22
BRANCH  21  24
ATOM     24  CB  ILE A   1      12.919   6.676  27.014  0.00  0.00    +0.025 C 
ATOM     25  CG2 ILE A   1      12.674   7.052  28.477  0.00  0.00    +0.002 C 
BRANCH  24  26
ATOM     26  CG1 ILE A   1      13.993   5.595  26.916  0.00  0.00    +0.002 C 
ATOM     27  CD1 ILE A   1      15.373   6.073  27.379  0.00  0.00    +0.000 C 
ENDBRANCH  24  26
ENDBRANCH  21  24
ENDBRANCH  17  21
ENDBRANCH  15  18
ENDBRANCH  11  15
ENDBRANCH   1  13
BRANCH   1  28
ATOM     28  CB  ARG A   3      11.228   8.233  19.640  0.00  0.00    +0.033 C 
BRANCH  28  29
ATOM     29  CG  ARG A   3      12.094   8.799  20.761  0.00  0.00    +0.045 C 
BRANCH  29  30
ATOM     30  CD  ARG A   3      11.246   9.491  21.806  0.00  0.00    +0.174 C 
BRANCH  30  31
ATOM     31  NE  ARG A   3      11.304  10.939  21.652  0.00  0.00    -0.265 N 
ATOM     32  CZ  ARG A   3      12.339  11.685  22.022  0.00  0.00    +0.342 C 
ATOM     33  NH2 ARG A   3      13.403  11.121  22.577  0.00  0.00    -0.292 N 
ATOM     34 HH21 ARG A   3      14.212  11.708  22.866  0.00  0.00    +0.255 HD
ATOM     35 HH22 ARG A   3      13.429  10.092  22.724  0.00  0.00    +0.255 HD
ATOM     36  NH1 ARG A   3      12.318  12.994  21.819  0.00  0.00    -0.292 N 
ATOM     37 HH11 ARG A   3      13.128  13.578  22.109  0.00  0.00    +0.255 HD
ATOM     38 HH12 ARG A   3      11.491  13.437  21.370  0.00  0.00    +0.255 HD
ATOM     39  HE  ARG A   3      10.485  11.418  21.226  0.00  0.00    +0.259 HD
ENDBRANCH  30  31
ENDBRANCH  29  30
ENDBRANCH  28  29
ENDBRANCH   1  28
TORSDOF 13
REMARK  Name = ../refined-set-2016/4h3f/4h3f_pocket.pdb
REMARK  222 active torsions:
REMARK  status: ('A' for Active; 'I' for Inactive)
REMARK    1  A    between atoms: _1  and  _3
REMARK    2  A    between atoms: _3  and  _4
REMARK    3  A    between atoms: _3  and  _6
REMARK    4  A    between atoms: _6  and  _7
REMARK    5  A    between atoms: _7  and  _8
REMARK    6  A    between atoms: _8  and  _9
REMARK    7  A    between atoms: _9  and  _10
REMARK    8  A    between atoms: _14  and  _16
REMARK    9  A    between atoms: _16  and  _17
REMARK   10  A    between atoms: _16  and  _19
REMARK   11  A    between atoms: _19  and  _20
REMARK   12  A    between atoms: _22  and  _24
REMARK   13  A    between atoms: _24  and  _25
REMARK   14  A    between atoms: _27  and  _29
REMARK   15  A    between atoms: _29  and  _30
REMARK   16  A    between atoms: _29  and  _32
REMARK   17  A    between atoms: _32  and  _33
REMARK   18  A    between atoms: _33  and  _34
REMARK   19  A    between atoms: _39  and  _41
REMARK   20  A    between atoms: _41  and  _42
REMARK   21  A    between atoms: _44  and  _46
REMARK   22  A    between atoms: _46  and  _47
REMARK   23  A    between atoms: _46  and  _49
REMARK   24  A    between atoms: _49  and  _50
REMARK   25  A    between atoms: _55  and  _56
REMARK   26  A    between atoms: _58  and  _60
REMARK   27  A    between atoms: _60  and  _61
REMARK   28  A    between atoms: _60  and  _63
REMARK   29  A    between atoms: _63  and  _64
REMARK   30  A    between atoms: _67  and  _69
REMARK   31  A    between atoms: _69  and  _70
REMARK   32  A    between atoms: _69  and  _72
REMARK   33  A    between atoms: _75  and  _77
REMARK   34  A    between atoms: _77  and  _78
REMARK   35  A    between atoms: _77  and  _80
REMARK   36  A    between atoms: _80  and  _81
REMARK   37  A    between atoms: _84  and  _86
REMARK   38  A    between atoms: _86  and  _87
REMARK   39  A    between atoms: _86  and  _89
REMARK   40  A    between atoms: _89  and  _90
REMARK   41  A    between atoms: _93  and  _95
REMARK   42  A    between atoms: _95  and  _96
REMARK   43  A    between atoms: _98  and  _100
REMARK   44  A    between atoms: _100  and  _101
REMARK   45  A    between atoms: _100  and  _103
REMARK   46  A    between atoms: _103  and  _104
REMARK   47  A    between atoms: _106  and  _108
REMARK   48  A    between atoms: _108  and  _109
REMARK   49  A    between atoms: _108  and  _111
REMARK   50  A    between atoms: _111  and  _112
REMARK   51  A    between atoms: _114  and  _116
REMARK   52  A    between atoms: _116  and  _117
REMARK   53  A    between atoms: _116  and  _119
REMARK   54  A    between atoms: _119  and  _120
REMARK   55  A    between atoms: _125  and  _127
REMARK   56  A    between atoms: _127  and  _128
REMARK   57  A    between atoms: _127  and  _130
REMARK   58  A    between atoms: _130  and  _131
REMARK   59  A    between atoms: _137  and  _139
REMARK   60  A    between atoms: _139  and  _140
REMARK   61  A    between atoms: _143  and  _145
REMARK   62  A    between atoms: _145  and  _146
REMARK   63  A    between atoms: _145  and  _148
REMARK   64  A    between atoms: _151  and  _153
REMARK   65  A    between atoms: _153  and  _154
REMARK   66  A    between atoms: _153  and  _156
REMARK   67  A    between atoms: _159  and  _161
REMARK   68  A    between atoms: _161  and  _162
REMARK   69  A    between atoms: _161  and  _164
REMARK   70  A    between atoms: _164  and  _165
REMARK   71  A    between atoms: _170  and  _171
REMARK   72  A    between atoms: _173  and  _175
REMARK   73  A    between atoms: _175  and  _176
REMARK   74  A    between atoms: _175  and  _178
REMARK   75  A    between atoms: _182  and  _183
REMARK   76  A    between atoms: _188  and  _190
REMARK   77  A    between atoms: _190  and  _191
REMARK   78  A    between atoms: _190  and  _193
REMARK   79  A    between atoms: _193  and  _194
REMARK   80  A    between atoms: _199  and  _200
REMARK   81  A    between atoms: _202  and  _204
REMARK   82  A    between atoms: _204  and  _205
REMARK   83  A    between atoms: _204  and  _207
REMARK   84  A    between atoms: _207  and  _208
REMARK   85  A    between atoms: _211  and  _213
REMARK   86  A    between atoms: _213  and  _214
REMARK   87  A    between atoms: _213  and  _216
REMARK   88  A    between atoms: _216  and  _217
REMARK   89  A    between atoms: _217  and  _218
REMARK   90  A    between atoms: _223  and  _225
REMARK   91  A    between atoms: _225  and  _226
REMARK   92  A    between atoms: _228  and  _230
REMARK   93  A    between atoms: _230  and  _231
REMARK   94  A    between atoms: _230  and  _233
REMARK   95  A    between atoms: _233  and  _234
REMARK   96  A    between atoms: _234  and  _235
REMARK   97  A    between atoms: _235  and  _236
REMARK   98  A    between atoms: _236  and  _237
REMARK   99  A    between atoms: _241  and  _243
REMARK  100  A    between atoms: _243  and  _244
REMARK  101  A    between atoms: _243  and  _246
REMARK  102  A    between atoms: _246  and  _247
REMARK  103  A    between atoms: _257  and  _259
REMARK  104  A    between atoms: _259  and  _260
REMARK  105  A    between atoms: _263  and  _265
REMARK  106  A    between atoms: _265  and  _266
REMARK  107  A    between atoms: _265  and  _268
REMARK  108  A    between atoms: _268  and  _269
REMARK  109  A    between atoms: _272  and  _274
REMARK  110  A    between atoms: _274  and  _275
REMARK  111  A    between atoms: _274  and  _277
REMARK  112  A    between atoms: _277  and  _278
REMARK  113  A    between atoms: _281  and  _283
REMARK  114  A    between atoms: _283  and  _284
REMARK  115  A    between atoms: _283  and  _286
REMARK  116  A    between atoms: _286  and  _287
REMARK  117  A    between atoms: _287  and  _288
REMARK  118  A    between atoms: _288  and  _289
REMARK  119  A    between atoms: _289  and  _290
REMARK  120  A    between atoms: _294  and  _296
REMARK  121  A    between atoms: _296  and  _297
REMARK  122  A    between atoms: _296  and  _299
REMARK  123  A    between atoms: _299  and  _300
REMARK  124  A    between atoms: _306  and  _308
REMARK  125  A    between atoms: _308  and  _309
REMARK  126  A    between atoms: _308  and  _311
REMARK  127  A    between atoms: _311  and  _312
REMARK  128  A    between atoms: _318  and  _320
REMARK  129  A    between atoms: _320  and  _321
REMARK  130  A    between atoms: _320  and  _323
REMARK  131  A    between atoms: _323  and  _324
REMARK  132  A    between atoms: _327  and  _329
REMARK  133  A    between atoms: _329  and  _330
REMARK  134  A    between atoms: _329  and  _332
REMARK  135  A    between atoms: _332  and  _333
REMARK  136  A    between atoms: _335  and  _337
REMARK  137  A    between atoms: _337  and  _338
REMARK  138  A    between atoms: _337  and  _340
REMARK  139  A    between atoms: _340  and  _341
REMARK  140  A    between atoms: _351  and  _353
REMARK  141  A    between atoms: _353  and  _354
REMARK  142  A    between atoms: _356  and  _358
REMARK  143  A    between atoms: _358  and  _359
REMARK  144  A    between atoms: _358  and  _361
REMARK  145  A    between atoms: _361  and  _362
REMARK  146  A    between atoms: _365  and  _367
REMARK  147  A    between atoms: _367  and  _368
REMARK  148  A    between atoms: _367  and  _370
REMARK  149  A    between atoms: _370  and  _371
REMARK  150  A    between atoms: _374  and  _376
REMARK  151  A    between atoms: _376  and  _377
REMARK  152  A    between atoms: _379  and  _381
REMARK  153  A    between atoms: _381  and  _382
REMARK  154  A    between atoms: _381  and  _384
REMARK  155  A    between atoms: _384  and  _385
REMARK  156  A    between atoms: _388  and  _390
REMARK  157  A    between atoms: _390  and  _391
REMARK  158  A    between atoms: _390  and  _393
REMARK  159  A    between atoms: _393  and  _394
REMARK  160  A    between atoms: _397  and  _399
REMARK  161  A    between atoms: _399  and  _400
REMARK  162  A    between atoms: _403  and  _405
REMARK  163  A    between atoms: _405  and  _406
REMARK  164  A    between atoms: _405  and  _408
REMARK  165  A    between atoms: _408  and  _409
REMARK  166  A    between atoms: _409  and  _410
REMARK  167  A    between atoms: _410  and  _411
REMARK  168  A    between atoms: _421  and  _422
REMARK  169  A    between atoms: _427  and  _429
REMARK  170  A    between atoms: _429  and  _430
REMARK  171  A    between atoms: _429  and  _432
REMARK  172  A    between atoms: _432  and  _433
REMARK  173  A    between atoms: _436  and  _438
REMARK  174  A    between atoms: _438  and  _439
REMARK  175  A    between atoms: _438  and  _441
REMARK  176  A    between atoms: _441  and  _442
REMARK  177  A    between atoms: _447  and  _448
REMARK  178  A    between atoms: _450  and  _452
REMARK  179  A    between atoms: _452  and  _453
REMARK  180  A    between atoms: _452  and  _455
REMARK  181  A    between atoms: _455  and  _456
REMARK  182  A    between atoms: _459  and  _461
REMARK  183  A    between atoms: _461  and  _462
REMARK  184  A    between atoms: _461  and  _464
REMARK  185  A    between atoms: _467  and  _469
REMARK  186  A    between atoms: _469  and  _470
REMARK  187  A    between atoms: _469  and  _472
REMARK  188  A    between atoms: _472  and  _473
REMARK  189  A    between atoms: _476  and  _478
REMARK  190  A    between atoms: _478  and  _479
REMARK  191  A    between atoms: _478  and  _481
REMARK  192  A    between atoms: _481  and  _482
REMARK  193  A    between atoms: _484  and  _486
REMARK  194  A    between atoms: _486  and  _487
REMARK  195  A    between atoms: _489  and  _491
REMARK  196  A    between atoms: _491  and  _492
REMARK  197  A    between atoms: _491  and  _494
REMARK  198  A    between atoms: _494  and  _495
REMARK  199  A    between atoms: _498  and  _500
REMARK  200  A    between atoms: _500  and  _501
REMARK  201  A    between atoms: _500  and  _503
REMARK  202  A    between atoms: _503  and  _504
REMARK  203  A    between atoms: _507  and  _509
REMARK  204  A    between atoms: _509  and  _510
REMARK  205  A    between atoms: _509  and  _512
REMARK  206  A    between atoms: _512  and  _513
REMARK  207  A    between atoms: _518  and  _520
REMARK  208  A    between atoms: _520  and  _521
REMARK  209  A    between atoms: _520  and  _523
REMARK  210  A    between atoms: _523  and  _524
REMARK  211  A    between atoms: _524  and  _525
REMARK  212  A    between atoms: _525  and  _526
REMARK  213  A    between atoms: _535  and  _537
REMARK  214  A    between atoms: _537  and  _538
REMARK  215  A    between atoms: _537  and  _540
REMARK  216  A    between atoms: _543  and  _545
REMARK  217  A    between atoms: _545  and  _546
REMARK  218  A    between atoms: _548  and  _550
REMARK  219  A    between atoms: _550  and  _551
REMARK  220  A    between atoms: _554  and  _556
REMARK  221  A    between atoms: _556  and  _557
REMARK  222  A    between atoms: _556  and  _559
REMARK                            x       y       z     vdW  Elec       q    Type
REMARK                         _______ _______ _______ _____ _____    ______ ____
ROOT
ATOM      1  CA  LEU A   1      34.652   0.867  27.096  0.00  0.00    +0.133 C 
ENDROOT
BRANCH   1   2
ATOM      2  N   LEU A   1      34.219  -0.192  28.011  0.00  0.00    -0.239 NA
ATOM      3  H   LEU A   1      33.854   0.062  28.951  0.00  0.00    +0.142 HD
ENDBRANCH   1   2
BRANCH   1   4
ATOM      4  C   LEU A   1      36.110   1.169  27.447  0.00  0.00    +0.224 C 
ATOM      5  O   LEU A   1      36.429   1.438  28.599  0.00  0.00    -0.287 OA
ENDBRANCH   1   4
BRANCH   1   6
ATOM      6  CB  LEU A   1      33.787   2.127  27.268  0.00  0.00    +0.025 C 
BRANCH   6   7
ATOM      7  CG  LEU A   1      32.276   1.934  27.120  0.00  0.00    +0.002 C 
ATOM      8  CD2 LEU A   1      31.585   3.298  27.092  0.00  0.00    +0.000 C 
ATOM      9  CD1 LEU A   1      31.970   1.158  25.828  0.00  0.00    +0.000 C 
ENDBRANCH   6   7
ENDBRANCH   1   6
TORSDOF 4
REMARK  Name = ../refined-set-2016/4h3f/4h3f_pocket.pdb
REMARK  222 active torsions:
REMARK  status: ('A' for Active; 'I' for Inactive)
REMARK    1  A    between atoms: _1  and  _3
REMARK    2  A    between atoms: _3  and  _4
REMARK    3  A    between atoms: _3  and  _6
REMARK    4  A    between atoms: _6  and  _7
REMARK    5  A    between atoms: _7  and  _8
REMARK    6  A    between atoms: _8  and  _9
REMARK    7  A    between atoms: _9  and  _10
REMARK    8  A    between atoms: _14  and  _16
REMARK    9  A    between atoms: _16  and  _17
REMARK   10  A    between atoms: _16  and  _19
REMARK   11  A    between atoms: _19  and  _20
REMARK   12  A    between atoms: _22  and  _24
REMARK   13  A    between atoms: _24  and  _25
REMARK   14  A    between atoms: _27  and  _29
REMARK   15  A    between atoms: _29  and  _30
REMARK   16  A    between atoms: _29  and  _32
REMARK   17  A    between atoms: _32  and  _33
REMARK   18  A    between atoms: _33  and  _34
REMARK   19  A    between atoms: _39  and  _41
REMARK   20  A    between atoms: _41  and  _42
REMARK   21  A    between atoms: _44  and  _46
REMARK   22  A    between atoms: _46  and  _47
REMARK   23  A    between atoms: _46  and  _49
REMARK   24  A    between atoms: _49  and  _50
REMARK   25  A    between atoms: _55  and  _56
REMARK   26  A    between atoms: _58  and  _60
REMARK   27  A    between atoms: _60  and  _61
REMARK   28  A    between atoms: _60  and  _63
REMARK   29  A    between atoms: _63  and  _64
REMARK   30  A    between atoms: _67  and  _69
REMARK   31  A    between atoms: _69  and  _70
REMARK   32  A    between atoms: _69  and  _72
REMARK   33  A    between atoms: _75  and  _77
REMARK   34  A    between atoms: _77  and  _78
REMARK   35  A    between atoms: _77  and  _80
REMARK   36  A    between atoms: _80  and  _81
REMARK   37  A    between atoms: _84  and  _86
REMARK   38  A    between atoms: _86  and  _87
REMARK   39  A    between atoms: _86  and  _89
REMARK   40  A    between atoms: _89  and  _90
REMARK   41  A    between atoms: _93  and  _95
REMARK   42  A    between atoms: _95  and  _96
REMARK   43  A    between atoms: _98  and  _100
REMARK   44  A    between atoms: _100  and  _101
REMARK   45  A    between atoms: _100  and  _103
REMARK   46  A    between atoms: _103  and  _104
REMARK   47  A    between atoms: _106  and  _108
REMARK   48  A    between atoms: _108  and  _109
REMARK   49  A    between atoms: _108  and  _111
REMARK   50  A    between atoms: _111  and  _112
REMARK   51  A    between atoms: _114  and  _116
REMARK   52  A    between atoms: _116  and  _117
REMARK   53  A    between atoms: _116  and  _119
REMARK   54  A    between atoms: _119  and  _120
REMARK   55  A    between atoms: _125  and  _127
REMARK   56  A    between atoms: _127  and  _128
REMARK   57  A    between atoms: _127  and  _130
REMARK   58  A    between atoms: _130  and  _131
REMARK   59  A    between atoms: _137  and  _139
REMARK   60  A    between atoms: _139  and  _140
REMARK   61  A    between atoms: _143  and  _145
REMARK   62  A    between atoms: _145  and  _146
REMARK   63  A    between atoms: _145  and  _148
REMARK   64  A    between atoms: _151  and  _153
REMARK   65  A    between atoms: _153  and  _154
REMARK   66  A    between atoms: _153  and  _156
REMARK   67  A    between atoms: _159  and  _161
REMARK   68  A    between atoms: _161  and  _162
REMARK   69  A    between atoms: _161  and  _164
REMARK   70  A    between atoms: _164  and  _165
REMARK   71  A    between atoms: _170  and  _171
REMARK   72  A    between atoms: _173  and  _175
REMARK   73  A    between atoms: _175  and  _176
REMARK   74  A    between atoms: _175  and  _178
REMARK   75  A    between atoms: _182  and  _183
REMARK   76  A    between atoms: _188  and  _190
REMARK   77  A    between atoms: _190  and  _191
REMARK   78  A    between atoms: _190  and  _193
REMARK   79  A    between atoms: _193  and  _194
REMARK   80  A    between atoms: _199  and  _200
REMARK   81  A    between atoms: _202  and  _204
REMARK   82  A    between atoms: _204  and  _205
REMARK   83  A    between atoms: _204  and  _207
REMARK   84  A    between atoms: _207  and  _208
REMARK   85  A    between atoms: _211  and  _213
REMARK   86  A    between atoms: _213  and  _214
REMARK   87  A    between atoms: _213  and  _216
REMARK   88  A    between atoms: _216  and  _217
REMARK   89  A    between atoms: _217  and  _218
REMARK   90  A    between atoms: _223  and  _225
REMARK   91  A    between atoms: _225  and  _226
REMARK   92  A    between atoms: _228  and  _230
REMARK   93  A    between atoms: _230  and  _231
REMARK   94  A    between atoms: _230  and  _233
REMARK   95  A    between atoms: _233  and  _234
REMARK   96  A    between atoms: _234  and  _235
REMARK   97  A    between atoms: _235  and  _236
REMARK   98  A    between atoms: _236  and  _237
REMARK   99  A    between atoms: _241  and  _243
REMARK  100  A    between atoms: _243  and  _244
REMARK  101  A    between atoms: _243  and  _246
REMARK  102  A    between atoms: _246  and  _247
REMARK  103  A    between atoms: _257  and  _259
REMARK  104  A    between atoms: _259  and  _260
REMARK  105  A    between atoms: _263  and  _265
REMARK  106  A    between atoms: _265  and  _266
REMARK  107  A    between atoms: _265  and  _268
REMARK  108  A    between atoms: _268  and  _269
REMARK  109  A    between atoms: _272  and  _274
REMARK  110  A    between atoms: _274  and  _275
REMARK  111  A    between atoms: _274  and  _277
REMARK  112  A    between atoms: _277  and  _278
REMARK  113  A    between atoms: _281  and  _283
REMARK  114  A    between atoms: _283  and  _284
REMARK  115  A    between atoms: _283  and  _286
REMARK  116  A    between atoms: _286  and  _287
REMARK  117  A    between atoms: _287  and  _288
REMARK  118  A    between atoms: _288  and  _289
REMARK  119  A    between atoms: _289  and  _290
REMARK  120  A    between atoms: _294  and  _296
REMARK  121  A    between atoms: _296  and  _297
REMARK  122  A    between atoms: _296  and  _299
REMARK  123  A    between atoms: _299  and  _300
REMARK  124  A    between atoms: _306  and  _308
REMARK  125  A    between atoms: _308  and  _309
REMARK  126  A    between atoms: _308  and  _311
REMARK  127  A    between atoms: _311  and  _312
REMARK  128  A    between atoms: _318  and  _320
REMARK  129  A    between atoms: _320  and  _321
REMARK  130  A    between atoms: _320  and  _323
REMARK  131  A    between atoms: _323  and  _324
REMARK  132  A    between atoms: _327  and  _329
REMARK  133  A    between atoms: _329  and  _330
REMARK  134  A    between atoms: _329  and  _332
REMARK  135  A    between atoms: _332  and  _333
REMARK  136  A    between atoms: _335  and  _337
REMARK  137  A    between atoms: _337  and  _338
REMARK  138  A    between atoms: _337  and  _340
REMARK  139  A    between atoms: _340  and  _341
REMARK  140  A    between atoms: _351  and  _353
REMARK  141  A    between atoms: _353  and  _354
REMARK  142  A    between atoms: _356  and  _358
REMARK  143  A    between atoms: _358  and  _359
REMARK  144  A    between atoms: _358  and  _361
REMARK  145  A    between atoms: _361  and  _362
REMARK  146  A    between atoms: _365  and  _367
REMARK  147  A    between atoms: _367  and  _368
REMARK  148  A    between atoms: _367  and  _370
REMARK  149  A    between atoms: _370  and  _371
REMARK  150  A    between atoms: _374  and  _376
REMARK  151  A    between atoms: _376  and  _377
REMARK  152  A    between atoms: _379  and  _381
REMARK  153  A    between atoms: _381  and  _382
REMARK  154  A    between atoms: _381  and  _384
REMARK  155  A    between atoms: _384  and  _385
REMARK  156  A    between atoms: _388  and  _390
REMARK  157  A    between atoms: _390  and  _391
REMARK  158  A    between atoms: _390  and  _393
REMARK  159  A    between atoms: _393  and  _394
REMARK  160  A    between atoms: _397  and  _399
REMARK  161  A    between atoms: _399  and  _400
REMARK  162  A    between atoms: _403  and  _405
REMARK  163  A    between atoms: _405  and  _406
REMARK  164  A    between atoms: _405  and  _408
REMARK  165  A    between atoms: _408  and  _409
REMARK  166  A    between atoms: _409  and  _410
REMARK  167  A    between atoms: _410  and  _411
REMARK  168  A    between atoms: _421  and  _422
REMARK  169  A    between atoms: _427  and  _429
REMARK  170  A    between atoms: _429  and  _430
REMARK  171  A    between atoms: _429  and  _432
REMARK  172  A    between atoms: _432  and  _433
REMARK  173  A    between atoms: _436  and  _438
REMARK  174  A    between atoms: _438  and  _439
REMARK  175  A    between atoms: _438  and  _441
REMARK  176  A    between atoms: _441  and  _442
REMARK  177  A    between atoms: _447  and  _448
REMARK  178  A    between atoms: _450  and  _452
REMARK  179  A    between atoms: _452  and  _453
REMARK  180  A    between atoms: _452  and  _455
REMARK  181  A    between atoms: _455  and  _456
REMARK  182  A    between atoms: _459  and  _461
REMARK  183  A    between atoms: _461  and  _462
REMARK  184  A    between atoms: _461  and  _464
REMARK  185  A    between atoms: _467  and  _469
REMARK  186  A    between atoms: _469  and  _470
REMARK  187  A    between atoms: _469  and  _472
REMARK  188  A    between atoms: _472  and  _473
REMARK  189  A    between atoms: _476  and  _478
REMARK  190  A    between atoms: _478  and  _479
REMARK  191  A    between atoms: _478  and  _481
REMARK  192  A    between atoms: _481  and  _482
REMARK  193  A    between atoms: _484  and  _486
REMARK  194  A    between atoms: _486  and  _487
REMARK  195  A    between atoms: _489  and  _491
REMARK  196  A    between atoms: _491  and  _492
REMARK  197  A    between atoms: _491  and  _494
REMARK  198  A    between atoms: _494  and  _495
REMARK  199  A    between atoms: _498  and  _500
REMARK  200  A    between atoms: _500  and  _501
REMARK  201  A    between atoms: _500  and  _503
REMARK  202  A    between atoms: _503  and  _504
REMARK  203  A    between atoms: _507  and  _509
REMARK  204  A    between atoms: _509  and  _510
REMARK  205  A    between atoms: _509  and  _512
REMARK  206  A    between atoms: _512  and  _513
REMARK  207  A    between atoms: _518  and  _520
REMARK  208  A    between atoms: _520  and  _521
REMARK  209  A    between atoms: _520  and  _523
REMARK  210  A    between atoms: _523  and  _524
REMARK  211  A    between atoms: _524  and  _525
REMARK  212  A    between atoms: _525  and  _526
REMARK  213  A    between atoms: _535  and  _537
REMARK  214  A    between atoms: _537  and  _538
REMARK  215  A    between atoms: _537  and  _540
REMARK  216  A    between atoms: _543  and  _545
REMARK  217  A    between atoms: _545  and  _546
REMARK  218  A    between atoms: _548  and  _550
REMARK  219  A    between atoms: _550  and  _551
REMARK  220  A    between atoms: _554  and  _556
REMARK  221  A    between atoms: _556  and  _557
REMARK  222  A    between atoms: _556  and  _559
REMARK                            x       y       z     vdW  Elec       q    Type
REMARK                         _______ _______ _______ _____ _____    ______ ____
ROOT
ATOM      1  CG  TYR A   1      16.887   7.587  30.897  0.00  0.00    -0.020 A 
ATOM      2  CD2 TYR A   1      15.759   8.366  31.130  0.00  0.00    -0.001 A 
ATOM      3  CE2 TYR A   1      15.386   9.357  30.238  0.00  0.00    +0.036 A 
ATOM      4  CZ  TYR A   1      16.142   9.572  29.107  0.00  0.00    +0.134 A 
ATOM      5  CE1 TYR A   1      17.266   8.817  28.859  0.00  0.00    +0.036 A 
ATOM      6  CD1 TYR A   1      17.636   7.833  29.748  0.00  0.00    -0.001 A 
ENDROOT
BRANCH   4   7
ATOM      7  OH  TYR A   1      15.768  10.543  28.209  0.00  0.00    -0.506 OA
ATOM      8  HH  TYR A   1      16.415  10.565  27.460  0.00  0.00    +0.292 HD
ENDBRANCH   4   7
BRANCH   1   9
ATOM      9  CB  TYR A   1      17.254   6.473  31.821  0.00  0.00    +0.051 C 
BRANCH   9  10
ATOM     10  CA  TYR A   1      16.789   5.089  31.355  0.00  0.00    +0.137 C 
BRANCH  10  11
ATOM     11  N   TYR A   1      15.374   4.880  31.656  0.00  0.00    -0.239 NA
ATOM     12  H   TYR A   1      14.925   5.419  32.424  0.00  0.00    +0.142 HD
ENDBRANCH  10  11
BRANCH  10  13
ATOM     13  C   TYR A   1      17.372   4.059  32.311  0.00  0.00    +0.224 C 
ATOM     14  O   TYR A   1      16.615   3.403  33.035  0.00  0.00    -0.287 OA
ENDBRANCH  10  13
ENDBRANCH   9  10
ENDBRANCH   1   9
TORSDOF 5
REMARK  Name = ../refined-set-2016/4h3f/4h3f_pocket.pdb
REMARK  222 active torsions:
REMARK  status: ('A' for Active; 'I' for Inactive)
REMARK    1  A    between atoms: _1  and  _3
REMARK    2  A    between atoms: _3  and  _4
REMARK    3  A    between atoms: _3  and  _6
REMARK    4  A    between atoms: _6  and  _7
REMARK    5  A    between atoms: _7  and  _8
REMARK    6  A    between atoms: _8  and  _9
REMARK    7  A    between atoms: _9  and  _10
REMARK    8  A    between atoms: _14  and  _16
REMARK    9  A    between atoms: _16  and  _17
REMARK   10  A    between atoms: _16  and  _19
REMARK   11  A    between atoms: _19  and  _20
REMARK   12  A    between atoms: _22  and  _24
REMARK   13  A    between atoms: _24  and  _25
REMARK   14  A    between atoms: _27  and  _29
REMARK   15  A    between atoms: _29  and  _30
REMARK   16  A    between atoms: _29  and  _32
REMARK   17  A    between atoms: _32  and  _33
REMARK   18  A    between atoms: _33  and  _34
REMARK   19  A    between atoms: _39  and  _41
REMARK   20  A    between atoms: _41  and  _42
REMARK   21  A    between atoms: _44  and  _46
REMARK   22  A    between atoms: _46  and  _47
REMARK   23  A    between atoms: _46  and  _49
REMARK   24  A    between atoms: _49  and  _50
REMARK   25  A    between atoms: _55  and  _56
REMARK   26  A    between atoms: _58  and  _60
REMARK   27  A    between atoms: _60  and  _61
REMARK   28  A    between atoms: _60  and  _63
REMARK   29  A    between atoms: _63  and  _64
REMARK   30  A    between atoms: _67  and  _69
REMARK   31  A    between atoms: _69  and  _70
REMARK   32  A    between atoms: _69  and  _72
REMARK   33  A    between atoms: _75  and  _77
REMARK   34  A    between atoms: _77  and  _78
REMARK   35  A    between atoms: _77  and  _80
REMARK   36  A    between atoms: _80  and  _81
REMARK   37  A    between atoms: _84  and  _86
REMARK   38  A    between atoms: _86  and  _87
REMARK   39  A    between atoms: _86  and  _89
REMARK   40  A    between atoms: _89  and  _90
REMARK   41  A    between atoms: _93  and  _95
REMARK   42  A    between atoms: _95  and  _96
REMARK   43  A    between atoms: _98  and  _100
REMARK   44  A    between atoms: _100  and  _101
REMARK   45  A    between atoms: _100  and  _103
REMARK   46  A    between atoms: _103  and  _104
REMARK   47  A    between atoms: _106  and  _108
REMARK   48  A    between atoms: _108  and  _109
REMARK   49  A    between atoms: _108  and  _111
REMARK   50  A    between atoms: _111  and  _112
REMARK   51  A    between atoms: _114  and  _116
REMARK   52  A    between atoms: _116  and  _117
REMARK   53  A    between atoms: _116  and  _119
REMARK   54  A    between atoms: _119  and  _120
REMARK   55  A    between atoms: _125  and  _127
REMARK   56  A    between atoms: _127  and  _128
REMARK   57  A    between atoms: _127  and  _130
REMARK   58  A    between atoms: _130  and  _131
REMARK   59  A    between atoms: _137  and  _139
REMARK   60  A    between atoms: _139  and  _140
REMARK   61  A    between atoms: _143  and  _145
REMARK   62  A    between atoms: _145  and  _146
REMARK   63  A    between atoms: _145  and  _148
REMARK   64  A    between atoms: _151  and  _153
REMARK   65  A    between atoms: _153  and  _154
REMARK   66  A    between atoms: _153  and  _156
REMARK   67  A    between atoms: _159  and  _161
REMARK   68  A    between atoms: _161  and  _162
REMARK   69  A    between atoms: _161  and  _164
REMARK   70  A    between atoms: _164  and  _165
REMARK   71  A    between atoms: _170  and  _171
REMARK   72  A    between atoms: _173  and  _175
REMARK   73  A    between atoms: _175  and  _176
REMARK   74  A    between atoms: _175  and  _178
REMARK   75  A    between atoms: _182  and  _183
REMARK   76  A    between atoms: _188  and  _190
REMARK   77  A    between atoms: _190  and  _191
REMARK   78  A    between atoms: _190  and  _193
REMARK   79  A    between atoms: _193  and  _194
REMARK   80  A    between atoms: _199  and  _200
REMARK   81  A    between atoms: _202  and  _204
REMARK   82  A    between atoms: _204  and  _205
REMARK   83  A    between atoms: _204  and  _207
REMARK   84  A    between atoms: _207  and  _208
REMARK   85  A    between atoms: _211  and  _213
REMARK   86  A    between atoms: _213  and  _214
REMARK   87  A    between atoms: _213  and  _216
REMARK   88  A    between atoms: _216  and  _217
REMARK   89  A    between atoms: _217  and  _218
REMARK   90  A    between atoms: _223  and  _225
REMARK   91  A    between atoms: _225  and  _226
REMARK   92  A    between atoms: _228  and  _230
REMARK   93  A    between atoms: _230  and  _231
REMARK   94  A    between atoms: _230  and  _233
REMARK   95  A    between atoms: _233  and  _234
REMARK   96  A    between atoms: _234  and  _235
REMARK   97  A    between atoms: _235  and  _236
REMARK   98  A    between atoms: _236  and  _237
REMARK   99  A    between atoms: _241  and  _243
REMARK  100  A    between atoms: _243  and  _244
REMARK  101  A    between atoms: _243  and  _246
REMARK  102  A    between atoms: _246  and  _247
REMARK  103  A    between atoms: _257  and  _259
REMARK  104  A    between atoms: _259  and  _260
REMARK  105  A    between atoms: _263  and  _265
REMARK  106  A    between atoms: _265  and  _266
REMARK  107  A    between atoms: _265  and  _268
REMARK  108  A    between atoms: _268  and  _269
REMARK  109  A    between atoms: _272  and  _274
REMARK  110  A    between atoms: _274  and  _275
REMARK  111  A    between atoms: _274  and  _277
REMARK  112  A    between atoms: _277  and  _278
REMARK  113  A    between atoms: _281  and  _283
REMARK  114  A    between atoms: _283  and  _284
REMARK  115  A    between atoms: _283  and  _286
REMARK  116  A    between atoms: _286  and  _287
REMARK  117  A    between atoms: _287  and  _288
REMARK  118  A    between atoms: _288  and  _289
REMARK  119  A    between atoms: _289  and  _290
REMARK  120  A    between atoms: _294  and  _296
REMARK  121  A    between atoms: _296  and  _297
REMARK  122  A    between atoms: _296  and  _299
REMARK  123  A    between atoms: _299  and  _300
REMARK  124  A    between atoms: _306  and  _308
REMARK  125  A    between atoms: _308  and  _309
REMARK  126  A    between atoms: _308  and  _311
REMARK  127  A    between atoms: _311  and  _312
REMARK  128  A    between atoms: _318  and  _320
REMARK  129  A    between atoms: _320  and  _321
REMARK  130  A    between atoms: _320  and  _323
REMARK  131  A    between atoms: _323  and  _324
REMARK  132  A    between atoms: _327  and  _329
REMARK  133  A    between atoms: _329  and  _330
REMARK  134  A    between atoms: _329  and  _332
REMARK  135  A    between atoms: _332  and  _333
REMARK  136  A    between atoms: _335  and  _337
REMARK  137  A    between atoms: _337  and  _338
REMARK  138  A    between atoms: _337  and  _340
REMARK  139  A    between atoms: _340  and  _341
REMARK  140  A    between atoms: _351  and  _353
REMARK  141  A    between atoms: _353  and  _354
REMARK  142  A    between atoms: _356  and  _358
REMARK  143  A    between atoms: _358  and  _359
REMARK  144  A    between atoms: _358  and  _361
REMARK  145  A    between atoms: _361  and  _362
REMARK  146  A    between atoms: _365  and  _367
REMARK  147  A    between atoms: _367  and  _368
REMARK  148  A    between atoms: _367  and  _370
REMARK  149  A    between atoms: _370  and  _371
REMARK  150  A    between atoms: _374  and  _376
REMARK  151  A    between atoms: _376  and  _377
REMARK  152  A    between atoms: _379  and  _381
REMARK  153  A    between atoms: _381  and  _382
REMARK  154  A    between atoms: _381  and  _384
REMARK  155  A    between atoms: _384  and  _385
REMARK  156  A    between atoms: _388  and  _390
REMARK  157  A    between atoms: _390  and  _391
REMARK  158  A    between atoms: _390  and  _393
REMARK  159  A    between atoms: _393  and  _394
REMARK  160  A    between atoms: _397  and  _399
REMARK  161  A    between atoms: _399  and  _400
REMARK  162  A    between atoms: _403  and  _405
REMARK  163  A    between atoms: _405  and  _406
REMARK  164  A    between atoms: _405  and  _408
REMARK  165  A    between atoms: _408  and  _409
REMARK  166  A    between atoms: _409  and  _410
REMARK  167  A    between atoms: _410  and  _411
REMARK  168  A    between atoms: _421  and  _422
REMARK  169  A    between atoms: _427  and  _429
REMARK  170  A    between atoms: _429  and  _430
REMARK  171  A    between atoms: _429  and  _432
REMARK  172  A    between atoms: _432  and  _433
REMARK  173  A    between atoms: _436  and  _438
REMARK  174  A    between atoms: _438  and  _439
REMARK  175  A    between atoms: _438  and  _441
REMARK  176  A    between atoms: _441  and  _442
REMARK  177  A    between atoms: _447  and  _448
REMARK  178  A    between atoms: _450  and  _452
REMARK  179  A    between atoms: _452  and  _453
REMARK  180  A    between atoms: _452  and  _455
REMARK  181  A    between atoms: _455  and  _456
REMARK  182  A    between atoms: _459  and  _461
REMARK  183  A    between atoms: _461  and  _462
REMARK  184  A    between atoms: _461  and  _464
REMARK  185  A    between atoms: _467  and  _469
REMARK  186  A    between atoms: _469  and  _470
REMARK  187  A    between atoms: _469  and  _472
REMARK  188  A    between atoms: _472  and  _473
REMARK  189  A    between atoms: _476  and  _478
REMARK  190  A    between atoms: _478  and  _479
REMARK  191  A    between atoms: _478  and  _481
REMARK  192  A    between atoms: _481  and  _482
REMARK  193  A    between atoms: _484  and  _486
REMARK  194  A    between atoms: _486  and  _487
REMARK  195  A    between atoms: _489  and  _491
REMARK  196  A    between atoms: _491  and  _492
REMARK  197  A    between atoms: _491  and  _494
REMARK  198  A    between atoms: _494  and  _495
REMARK  199  A    between atoms: _498  and  _500
REMARK  200  A    between atoms: _500  and  _501
REMARK  201  A    between atoms: _500  and  _503
REMARK  202  A    between atoms: _503  and  _504
REMARK  203  A    between atoms: _507  and  _509
REMARK  204  A    between atoms: _509  and  _510
REMARK  205  A    between atoms: _509  and  _512
REMARK  206  A    between atoms: _512  and  _513
REMARK  207  A    between atoms: _518  and  _520
REMARK  208  A    between atoms: _520  and  _521
REMARK  209  A    between atoms: _520  and  _523
REMARK  210  A    between atoms: _523  and  _524
REMARK  211  A    between atoms: _524  and  _525
REMARK  212  A    between atoms: _525  and  _526
REMARK  213  A    between atoms: _535  and  _537
REMARK  214  A    between atoms: _537  and  _538
REMARK  215  A    between atoms: _537  and  _540
REMARK  216  A    between atoms: _543  and  _545
REMARK  217  A    between atoms: _545  and  _546
REMARK  218  A    between atoms: _548  and  _550
REMARK  219  A    between atoms: _550  and  _551
REMARK  220  A    between atoms: _554  and  _556
REMARK  221  A    between atoms: _556  and  _557
REMARK  222  A    between atoms: _556  and  _559
REMARK                            x       y       z     vdW  Elec       q    Type
REMARK                         _______ _______ _______ _____ _____    ______ ____
ROOT
ATOM      1  C   SER A   4      27.383   6.101  25.953  0.00  0.00    +0.243 C 
ATOM      2  N   GLY A   5      26.251   6.778  25.759  0.00  0.00    -0.295 N 
ATOM      3  H   GLY A   5      25.450   6.619  26.403  0.00  0.00    +0.150 HD
ATOM      4  O   SER A   4      28.376   6.241  25.249  0.00  0.00    -0.273 OA
ENDROOT
BRANCH   2   5
ATOM      5  CA  GLY A   5      26.105   7.730  24.675  0.00  0.00    +0.176 C 
BRANCH   5   6
ATOM      6  C   GLY A   5      26.370   9.179  25.048  0.00  0.00    +0.243 C 
ATOM      7  N   THR A   6      26.950   9.388  26.228  0.00  0.00    -0.295 N 
ATOM      8  H   THR A   6      27.147   8.567  26.835  0.00  0.00    +0.150 HD
ATOM      9  O   GLY A   5      26.025  10.085  24.295  0.00  0.00    -0.273 OA
BRANCH   7  10
ATOM     10  CA  THR A   6      27.325  10.719  26.714  0.00  0.00    +0.176 C 
BRANCH  10  11
ATOM     11  C   THR A   6      28.824  10.631  26.995  0.00  0.00    +0.243 C 
ATOM     12  O   THR A   6      29.289   9.685  27.625  0.00  0.00    -0.273 OA
ATOM     13  N   THR A   7      29.579  11.605  26.508  0.00  0.00    -0.295 N 
ATOM     14  H   THR A   7      29.133  12.382  25.979  0.00  0.00    +0.150 HD
BRANCH  13  15
ATOM     15  CA  THR A   7      31.025  11.606  26.702  0.00  0.00    +0.176 C 
BRANCH  15  16
ATOM     16  C   THR A   7      31.471  11.857  28.143  0.00  0.00    +0.243 C 
ATOM     17  N   ASN A   8      30.950  12.932  28.723  0.00  0.00    -0.298 N 
ATOM     18  H   ASN A   8      30.238  13.484  28.203  0.00  0.00    +0.150 HD
ATOM     19  O   THR A   7      32.269  11.104  28.705  0.00  0.00    -0.273 OA
BRANCH  17  20
ATOM     20  CA  ASN A   8      31.337  13.371  30.062  0.00  0.00    +0.146 C 
BRANCH  20  21
ATOM     21  C   ASN A   8      30.611  12.767  31.245  0.00  0.00    +0.227 C 
ATOM     22  O   ASN A   8      29.652  12.014  31.104  0.00  0.00    -0.286 OA
ENDBRANCH  20  21
BRANCH  20  23
ATOM     23  CB  ASN A   8      31.122  14.885  30.182  0.00  0.00    +0.112 C 
BRANCH  23  24
ATOM     24  CG  ASN A   8      32.076  15.703  29.330  0.00  0.00    +0.222 C 
ATOM     25  ND2 ASN A   8      31.904  17.022  29.375  0.00  0.00    -0.329 N 
ATOM     26 HD21 ASN A   8      31.147  17.428  29.962  0.00  0.00    +0.145 HD
ATOM     27 HD22 ASN A   8      32.526  17.647  28.823  0.00  0.00    +0.145 HD
ATOM     28  OD1 ASN A   8      32.954  15.175  28.653  0.00  0.00    -0.275 OA
ENDBRANCH  23  24
ENDBRANCH  20  23
ENDBRANCH  17  20
ENDBRANCH  15  16
BRANCH  15  29
ATOM     29  CB  THR A   7      31.688  12.693  25.822  0.00  0.00    +0.137 C 
ATOM     30  CG2 THR A   7      33.184  12.788  26.107  0.00  0.00    +0.034 C 
BRANCH  29  31
ATOM     31  OG1 THR A   7      31.494  12.377  24.440  0.00  0.00    -0.382 OA
ATOM     32  HG1 THR A   7      31.905  11.498  24.243  0.00  0.00    +0.210 HD
ENDBRANCH  29  31
ENDBRANCH  15  29
ENDBRANCH  13  15
ENDBRANCH  10  11
BRANCH  10  33
ATOM     33  CB  THR A   6      26.587  11.096  28.029  0.00  0.00    +0.137 C 
ATOM     34  CG2 THR A   6      27.247  12.304  28.681  0.00  0.00    +0.034 C 
BRANCH  33  35
ATOM     35  OG1 THR A   6      25.224  11.425  27.736  0.00  0.00    -0.382 OA
ATOM     36  HG1 THR A   6      24.779  10.644  27.320  0.00  0.00    +0.210 HD
ENDBRANCH  33  35
ENDBRANCH  10  33
ENDBRANCH   7  10
ENDBRANCH   5   6
ENDBRANCH   2   5
BRANCH   1  37
ATOM     37  CA  SER A   4      27.397   5.112  27.122  0.00  0.00    +0.178 C 
BRANCH  37  40
ATOM     38  C   ASP A   3      26.080   6.417  28.698  0.00  0.00    +0.241 C 
ATOM     39  O   ASP A   3      26.910   7.332  28.701  0.00  0.00    -0.273 OA
ATOM     40  N   SER A   4      26.231   5.307  27.980  0.00  0.00    -0.295 N 
ATOM     41  H   SER A   4      25.505   4.564  28.031  0.00  0.00    +0.150 HD
BRANCH  38  42
ATOM     42  CA  ASP A   3      24.806   6.510  29.525  0.00  0.00    +0.160 C 
BRANCH  42  45
ATOM     43  C   VAL A   2      24.173   5.484  31.653  0.00  0.00    +0.241 C 
ATOM     44  O   VAL A   2      23.273   4.812  31.131  0.00  0.00    -0.273 OA
ATOM     45  N   ASP A   3      24.987   6.275  30.958  0.00  0.00    -0.297 N 
ATOM     46  H   ASP A   3      25.777   6.741  31.449  0.00  0.00    +0.150 HD
BRANCH  43  47
ATOM     47  CA  VAL A   2      24.400   5.420  33.159  0.00  0.00    +0.148 C 
BRANCH  47  50
ATOM     48  C   ILE A   1      23.023   7.136  34.246  0.00  0.00    +0.238 C 
ATOM     49  O   ILE A   1      23.974   7.894  34.395  0.00  0.00    -0.274 OA
ATOM     50  N   VAL A   2      23.135   5.929  33.696  0.00  0.00    -0.297 N 
ATOM     51  H   VAL A   2      22.291   5.323  33.645  0.00  0.00    +0.150 HD
BRANCH  48  52
ATOM     52  CA  ILE A   1      21.624   7.535  34.708  0.00  0.00    +0.145 C 
BRANCH  52  53
ATOM     53  CB  ILE A   1      20.801   7.890  33.442  0.00  0.00    +0.025 C 
ATOM     54  CG2 ILE A   1      19.410   8.377  33.842  0.00  0.00    +0.002 C 
BRANCH  53  55
ATOM     55  CG1 ILE A   1      21.513   8.984  32.644  0.00  0.00    +0.002 C 
ATOM     56  CD1 ILE A   1      20.801   9.361  31.336  0.00  0.00    +0.000 C 
ENDBRANCH  53  55
ENDBRANCH  52  53
BRANCH  52  57
ATOM     57  N   ILE A   1      21.644   8.654  35.659  0.00  0.00    -0.238 NA
ATOM     58  H   ILE A   1      22.204   9.504  35.447  0.00  0.00    +0.142 HD
ENDBRANCH  52  57
ENDBRANCH  48  52
ENDBRANCH  47  50
BRANCH  47  59
ATOM     59  CB  VAL A   2      24.636   3.961  33.592  0.00  0.00    +0.027 C 
ATOM     60  CG2 VAL A   2      24.602   3.859  35.129  0.00  0.00    +0.002 C 
ATOM     61  CG1 VAL A   2      25.973   3.480  33.064  0.00  0.00    +0.002 C 
ENDBRANCH  47  59
ENDBRANCH  43  47
ENDBRANCH  42  45
BRANCH  42  62
ATOM     62  CB  ASP A   3      24.182   7.899  29.350  0.00  0.00    +0.143 C 
BRANCH  62  63
ATOM     63  CG  ASP A   3      23.846   8.230  27.904  0.00  0.00    +0.367 C 
ATOM     64  OD2 ASP A   3      23.473   9.378  27.650  0.00  0.00    -0.246 OA
ATOM     65  OD1 ASP A   3      23.951   7.353  27.049  0.00  0.00    -0.246 OA
ENDBRANCH  62  63
ENDBRANCH  42  62
ENDBRANCH  38  42
ENDBRANCH  37  40
BRANCH  37  66
ATOM     66  CB  SER A   4      27.416   3.678  26.570  0.00  0.00    +0.166 C 
BRANCH  66  67
ATOM     67  OG  SER A   4      26.233   3.387  25.823  0.00  0.00    -0.380 OA
ATOM     68  H   SER A   4      26.162   4.015  25.061  0.00  0.00    +0.211 HD
ENDBRANCH  66  67
ENDBRANCH  37  66
ENDBRANCH   1  37
TORSDOF 29
REMARK  Name = ../refined-set-2016/4h3f/4h3f_pocket.pdb
REMARK  222 active torsions:
REMARK  status: ('A' for Active; 'I' for Inactive)
REMARK    1  A    between atoms: _1  and  _3
REMARK    2  A    between atoms: _3  and  _4
REMARK    3  A    between atoms: _3  and  _6
REMARK    4  A    between atoms: _6  and  _7
REMARK    5  A    between atoms: _7  and  _8
REMARK    6  A    between atoms: _8  and  _9
REMARK    7  A    between atoms: _9  and  _10
REMARK    8  A    between atoms: _14  and  _16
REMARK    9  A    between atoms: _16  and  _17
REMARK   10  A    between atoms: _16  and  _19
REMARK   11  A    between atoms: _19  and  _20
REMARK   12  A    between atoms: _22  and  _24
REMARK   13  A    between atoms: _24  and  _25
REMARK   14  A    between atoms: _27  and  _29
REMARK   15  A    between atoms: _29  and  _30
REMARK   16  A    between atoms: _29  and  _32
REMARK   17  A    between atoms: _32  and  _33
REMARK   18  A    between atoms: _33  and  _34
REMARK   19  A    between atoms: _39  and  _41
REMARK   20  A    between atoms: _41  and  _42
REMARK   21  A    between atoms: _44  and  _46
REMARK   22  A    between atoms: _46  and  _47
REMARK   23  A    between atoms: _46  and  _49
REMARK   24  A    between atoms: _49  and  _50
REMARK   25  A    between atoms: _55  and  _56
REMARK   26  A    between atoms: _58  and  _60
REMARK   27  A    between atoms: _60  and  _61
REMARK   28  A    between atoms: _60  and  _63
REMARK   29  A    between atoms: _63  and  _64
REMARK   30  A    between atoms: _67  and  _69
REMARK   31  A    between atoms: _69  and  _70
REMARK   32  A    between atoms: _69  and  _72
REMARK   33  A    between atoms: _75  and  _77
REMARK   34  A    between atoms: _77  and  _78
REMARK   35  A    between atoms: _77  and  _80
REMARK   36  A    between atoms: _80  and  _81
REMARK   37  A    between atoms: _84  and  _86
REMARK   38  A    between atoms: _86  and  _87
REMARK   39  A    between atoms: _86  and  _89
REMARK   40  A    between atoms: _89  and  _90
REMARK   41  A    between atoms: _93  and  _95
REMARK   42  A    between atoms: _95  and  _96
REMARK   43  A    between atoms: _98  and  _100
REMARK   44  A    between atoms: _100  and  _101
REMARK   45  A    between atoms: _100  and  _103
REMARK   46  A    between atoms: _103  and  _104
REMARK   47  A    between atoms: _106  and  _108
REMARK   48  A    between atoms: _108  and  _109
REMARK   49  A    between atoms: _108  and  _111
REMARK   50  A    between atoms: _111  and  _112
REMARK   51  A    between atoms: _114  and  _116
REMARK   52  A    between atoms: _116  and  _117
REMARK   53  A    between atoms: _116  and  _119
REMARK   54  A    between atoms: _119  and  _120
REMARK   55  A    between atoms: _125  and  _127
REMARK   56  A    between atoms: _127  and  _128
REMARK   57  A    between atoms: _127  and  _130
REMARK   58  A    between atoms: _130  and  _131
REMARK   59  A    between atoms: _137  and  _139
REMARK   60  A    between atoms: _139  and  _140
REMARK   61  A    between atoms: _143  and  _145
REMARK   62  A    between atoms: _145  and  _146
REMARK   63  A    between atoms: _145  and  _148
REMARK   64  A    between atoms: _151  and  _153
REMARK   65  A    between atoms: _153  and  _154
REMARK   66  A    between atoms: _153  and  _156
REMARK   67  A    between atoms: _159  and  _161
REMARK   68  A    between atoms: _161  and  _162
REMARK   69  A    between atoms: _161  and  _164
REMARK   70  A    between atoms: _164  and  _165
REMARK   71  A    between atoms: _170  and  _171
REMARK   72  A    between atoms: _173  and  _175
REMARK   73  A    between atoms: _175  and  _176
REMARK   74  A    between atoms: _175  and  _178
REMARK   75  A    between atoms: _182  and  _183
REMARK   76  A    between atoms: _188  and  _190
REMARK   77  A    between atoms: _190  and  _191
REMARK   78  A    between atoms: _190  and  _193
REMARK   79  A    between atoms: _193  and  _194
REMARK   80  A    between atoms: _199  and  _200
REMARK   81  A    between atoms: _202  and  _204
REMARK   82  A    between atoms: _204  and  _205
REMARK   83  A    between atoms: _204  and  _207
REMARK   84  A    between atoms: _207  and  _208
REMARK   85  A    between atoms: _211  and  _213
REMARK   86  A    between atoms: _213  and  _214
REMARK   87  A    between atoms: _213  and  _216
REMARK   88  A    between atoms: _216  and  _217
REMARK   89  A    between atoms: _217  and  _218
REMARK   90  A    between atoms: _223  and  _225
REMARK   91  A    between atoms: _225  and  _226
REMARK   92  A    between atoms: _228  and  _230
REMARK   93  A    between atoms: _230  and  _231
REMARK   94  A    between atoms: _230  and  _233
REMARK   95  A    between atoms: _233  and  _234
REMARK   96  A    between atoms: _234  and  _235
REMARK   97  A    between atoms: _235  and  _236
REMARK   98  A    between atoms: _236  and  _237
REMARK   99  A    between atoms: _241  and  _243
REMARK  100  A    between atoms: _243  and  _244
REMARK  101  A    between atoms: _243  and  _246
REMARK  102  A    between atoms: _246  and  _247
REMARK  103  A    between atoms: _257  and  _259
REMARK  104  A    between atoms: _259  and  _260
REMARK  105  A    between atoms: _263  and  _265
REMARK  106  A    between atoms: _265  and  _266
REMARK  107  A    between atoms: _265  and  _268
REMARK  108  A    between atoms: _268  and  _269
REMARK  109  A    between atoms: _272  and  _274
REMARK  110  A    between atoms: _274  and  _275
REMARK  111  A    between atoms: _274  and  _277
REMARK  112  A    between atoms: _277  and  _278
REMARK  113  A    between atoms: _281  and  _283
REMARK  114  A    between atoms: _283  and  _284
REMARK  115  A    between atoms: _283  and  _286
REMARK  116  A    between atoms: _286  and  _287
REMARK  117  A    between atoms: _287  and  _288
REMARK  118  A    between atoms: _288  and  _289
REMARK  119  A    between atoms: _289  and  _290
REMARK  120  A    between atoms: _294  and  _296
REMARK  121  A    between atoms: _296  and  _297
REMARK  122  A    between atoms: _296  and  _299
REMARK  123  A    between atoms: _299  and  _300
REMARK  124  A    between atoms: _306  and  _308
REMARK  125  A    between atoms: _308  and  _309
REMARK  126  A    between atoms: _308  and  _311
REMARK  127  A    between atoms: _311  and  _312
REMARK  128  A    between atoms: _318  and  _320
REMARK  129  A    between atoms: _320  and  _321
REMARK  130  A    between atoms: _320  and  _323
REMARK  131  A    between atoms: _323  and  _324
REMARK  132  A    between atoms: _327  and  _329
REMARK  133  A    between atoms: _329  and  _330
REMARK  134  A    between atoms: _329  and  _332
REMARK  135  A    between atoms: _332  and  _333
REMARK  136  A    between atoms: _335  and  _337
REMARK  137  A    between atoms: _337  and  _338
REMARK  138  A    between atoms: _337  and  _340
REMARK  139  A    between atoms: _340  and  _341
REMARK  140  A    between atoms: _351  and  _353
REMARK  141  A    between atoms: _353  and  _354
REMARK  142  A    between atoms: _356  and  _358
REMARK  143  A    between atoms: _358  and  _359
REMARK  144  A    between atoms: _358  and  _361
REMARK  145  A    between atoms: _361  and  _362
REMARK  146  A    between atoms: _365  and  _367
REMARK  147  A    between atoms: _367  and  _368
REMARK  148  A    between atoms: _367  and  _370
REMARK  149  A    between atoms: _370  and  _371
REMARK  150  A    between atoms: _374  and  _376
REMARK  151  A    between atoms: _376  and  _377
REMARK  152  A    between atoms: _379  and  _381
REMARK  153  A    between atoms: _381  and  _382
REMARK  154  A    between atoms: _381  and  _384
REMARK  155  A    between atoms: _384  and  _385
REMARK  156  A    between atoms: _388  and  _390
REMARK  157  A    between atoms: _390  and  _391
REMARK  158  A    between atoms: _390  and  _393
REMARK  159  A    between atoms: _393  and  _394
REMARK  160  A    between atoms: _397  and  _399
REMARK  161  A    between atoms: _399  and  _400
REMARK  162  A    between atoms: _403  and  _405
REMARK  163  A    between atoms: _405  and  _406
REMARK  164  A    between atoms: _405  and  _408
REMARK  165  A    between atoms: _408  and  _409
REMARK  166  A    between atoms: _409  and  _410
REMARK  167  A    between atoms: _410  and  _411
REMARK  168  A    between atoms: _421  and  _422
REMARK  169  A    between atoms: _427  and  _429
REMARK  170  A    between atoms: _429  and  _430
REMARK  171  A    between atoms: _429  and  _432
REMARK  172  A    between atoms: _432  and  _433
REMARK  173  A    between atoms: _436  and  _438
REMARK  174  A    between atoms: _438  and  _439
REMARK  175  A    between atoms: _438  and  _441
REMARK  176  A    between atoms: _441  and  _442
REMARK  177  A    between atoms: _447  and  _448
REMARK  178  A    between atoms: _450  and  _452
REMARK  179  A    between atoms: _452  and  _453
REMARK  180  A    between atoms: _452  and  _455
REMARK  181  A    between atoms: _455  and  _456
REMARK  182  A    between atoms: _459  and  _461
REMARK  183  A    between atoms: _461  and  _462
REMARK  184  A    between atoms: _461  and  _464
REMARK  185  A    between atoms: _467  and  _469
REMARK  186  A    between atoms: _469  and  _470
REMARK  187  A    between atoms: _469  and  _472
REMARK  188  A    between atoms: _472  and  _473
REMARK  189  A    between atoms: _476  and  _478
REMARK  190  A    between atoms: _478  and  _479
REMARK  191  A    between atoms: _478  and  _481
REMARK  192  A    between atoms: _481  and  _482
REMARK  193  A    between atoms: _484  and  _486
REMARK  194  A    between atoms: _486  and  _487
REMARK  195  A    between atoms: _489  and  _491
REMARK  196  A    between atoms: _491  and  _492
REMARK  197  A    between atoms: _491  and  _494
REMARK  198  A    between atoms: _494  and  _495
REMARK  199  A    between atoms: _498  and  _500
REMARK  200  A    between atoms: _500  and  _501
REMARK  201  A    between atoms: _500  and  _503
REMARK  202  A    between atoms: _503  and  _504
REMARK  203  A    between atoms: _507  and  _509
REMARK  204  A    between atoms: _509  and  _510
REMARK  205  A    between atoms: _509  and  _512
REMARK  206  A    between atoms: _512  and  _513
REMARK  207  A    between atoms: _518  and  _520
REMARK  208  A    between atoms: _520  and  _521
REMARK  209  A    between atoms: _520  and  _523
REMARK  210  A    between atoms: _523  and  _524
REMARK  211  A    between atoms: _524  and  _525
REMARK  212  A    between atoms: _525  and  _526
REMARK  213  A    between atoms: _535  and  _537
REMARK  214  A    between atoms: _537  and  _538
REMARK  215  A    between atoms: _537  and  _540
REMARK  216  A    between atoms: _543  and  _545
REMARK  217  A    between atoms: _545  and  _546
REMARK  218  A    between atoms: _548  and  _550
REMARK  219  A    between atoms: _550  and  _551
REMARK  220  A    between atoms: _554  and  _556
REMARK  221  A    between atoms: _556  and  _557
REMARK  222  A    between atoms: _556  and  _559
REMARK                            x       y       z     vdW  Elec       q    Type
REMARK                         _______ _______ _______ _____ _____    ______ ____
ROOT
ATOM      1  NE  ARG A   1      25.806  17.018  30.318  0.00  0.00    -0.265 N 
ATOM      2  HE  ARG A   1      26.453  17.767  30.639  0.00  0.00    +0.259 HD
ATOM      3  CZ  ARG A   1      24.565  17.362  29.998  0.00  0.00    +0.342 C 
ATOM      4  NH2 ARG A   1      24.178  18.631  30.092  0.00  0.00    -0.292 N 
ATOM      5 HH21 ARG A   1      24.849  19.356  30.417  0.00  0.00    +0.255 HD
ATOM      6 HH22 ARG A   1      23.205  18.898  29.841  0.00  0.00    +0.255 HD
ATOM      7  NH1 ARG A   1      23.706  16.432  29.600  0.00  0.00    -0.292 N 
ATOM      8 HH11 ARG A   1      24.006  15.438  29.540  0.00  0.00    +0.255 HD
ATOM      9 HH12 ARG A   1      22.732  16.697  29.348  0.00  0.00    +0.255 HD
ENDROOT
BRANCH   1  10
ATOM     10  CD  ARG A   1      26.319  15.654  30.247  0.00  0.00    +0.174 C 
BRANCH  10  11
ATOM     11  CG  ARG A   1      27.295  15.387  31.365  0.00  0.00    +0.045 C 
BRANCH  11  12
ATOM     12  CB  ARG A   1      26.617  15.437  32.744  0.00  0.00    +0.029 C 
BRANCH  12  13
ATOM     13  CA  ARG A   1      27.630  15.324  33.887  0.00  0.00    +0.133 C 
BRANCH  13  14
ATOM     14  N   ARG A   1      28.392  14.085  33.770  0.00  0.00    -0.239 NA
ATOM     15  H   ARG A   1      27.891  13.179  33.670  0.00  0.00    +0.142 HD
ENDBRANCH  13  14
BRANCH  13  16
ATOM     16  C   ARG A   1      26.951  15.347  35.251  0.00  0.00    +0.224 C 
ATOM     17  O   ARG A   1      26.408  14.333  35.705  0.00  0.00    -0.287 OA
ENDBRANCH  13  16
ENDBRANCH  12  13
ENDBRANCH  11  12
ENDBRANCH  10  11
ENDBRANCH   1  10
TORSDOF 6
REMARK  Name = ../refined-set-2016/4h3f/4h3f_pocket.pdb
REMARK  222 active torsions:
REMARK  status: ('A' for Active; 'I' for Inactive)
REMARK    1  A    between atoms: _1  and  _3
REMARK    2  A    between atoms: _3  and  _4
REMARK    3  A    between atoms: _3  and  _6
REMARK    4  A    between atoms: _6  and  _7
REMARK    5  A    between atoms: _7  and  _8
REMARK    6  A    between atoms: _8  and  _9
REMARK    7  A    between atoms: _9  and  _10
REMARK    8  A    between atoms: _14  and  _16
REMARK    9  A    between atoms: _16  and  _17
REMARK   10  A    between atoms: _16  and  _19
REMARK   11  A    between atoms: _19  and  _20
REMARK   12  A    between atoms: _22  and  _24
REMARK   13  A    between atoms: _24  and  _25
REMARK   14  A    between atoms: _27  and  _29
REMARK   15  A    between atoms: _29  and  _30
REMARK   16  A    between atoms: _29  and  _32
REMARK   17  A    between atoms: _32  and  _33
REMARK   18  A    between atoms: _33  and  _34
REMARK   19  A    between atoms: _39  and  _41
REMARK   20  A    between atoms: _41  and  _42
REMARK   21  A    between atoms: _44  and  _46
REMARK   22  A    between atoms: _46  and  _47
REMARK   23  A    between atoms: _46  and  _49
REMARK   24  A    between atoms: _49  and  _50
REMARK   25  A    between atoms: _55  and  _56
REMARK   26  A    between atoms: _58  and  _60
REMARK   27  A    between atoms: _60  and  _61
REMARK   28  A    between atoms: _60  and  _63
REMARK   29  A    between atoms: _63  and  _64
REMARK   30  A    between atoms: _67  and  _69
REMARK   31  A    between atoms: _69  and  _70
REMARK   32  A    between atoms: _69  and  _72
REMARK   33  A    between atoms: _75  and  _77
REMARK   34  A    between atoms: _77  and  _78
REMARK   35  A    between atoms: _77  and  _80
REMARK   36  A    between atoms: _80  and  _81
REMARK   37  A    between atoms: _84  and  _86
REMARK   38  A    between atoms: _86  and  _87
REMARK   39  A    between atoms: _86  and  _89
REMARK   40  A    between atoms: _89  and  _90
REMARK   41  A    between atoms: _93  and  _95
REMARK   42  A    between atoms: _95  and  _96
REMARK   43  A    between atoms: _98  and  _100
REMARK   44  A    between atoms: _100  and  _101
REMARK   45  A    between atoms: _100  and  _103
REMARK   46  A    between atoms: _103  and  _104
REMARK   47  A    between atoms: _106  and  _108
REMARK   48  A    between atoms: _108  and  _109
REMARK   49  A    between atoms: _108  and  _111
REMARK   50  A    between atoms: _111  and  _112
REMARK   51  A    between atoms: _114  and  _116
REMARK   52  A    between atoms: _116  and  _117
REMARK   53  A    between atoms: _116  and  _119
REMARK   54  A    between atoms: _119  and  _120
REMARK   55  A    between atoms: _125  and  _127
REMARK   56  A    between atoms: _127  and  _128
REMARK   57  A    between atoms: _127  and  _130
REMARK   58  A    between atoms: _130  and  _131
REMARK   59  A    between atoms: _137  and  _139
REMARK   60  A    between atoms: _139  and  _140
REMARK   61  A    between atoms: _143  and  _145
REMARK   62  A    between atoms: _145  and  _146
REMARK   63  A    between atoms: _145  and  _148
REMARK   64  A    between atoms: _151  and  _153
REMARK   65  A    between atoms: _153  and  _154
REMARK   66  A    between atoms: _153  and  _156
REMARK   67  A    between atoms: _159  and  _161
REMARK   68  A    between atoms: _161  and  _162
REMARK   69  A    between atoms: _161  and  _164
REMARK   70  A    between atoms: _164  and  _165
REMARK   71  A    between atoms: _170  and  _171
REMARK   72  A    between atoms: _173  and  _175
REMARK   73  A    between atoms: _175  and  _176
REMARK   74  A    between atoms: _175  and  _178
REMARK   75  A    between atoms: _182  and  _183
REMARK   76  A    between atoms: _188  and  _190
REMARK   77  A    between atoms: _190  and  _191
REMARK   78  A    between atoms: _190  and  _193
REMARK   79  A    between atoms: _193  and  _194
REMARK   80  A    between atoms: _199  and  _200
REMARK   81  A    between atoms: _202  and  _204
REMARK   82  A    between atoms: _204  and  _205
REMARK   83  A    between atoms: _204  and  _207
REMARK   84  A    between atoms: _207  and  _208
REMARK   85  A    between atoms: _211  and  _213
REMARK   86  A    between atoms: _213  and  _214
REMARK   87  A    between atoms: _213  and  _216
REMARK   88  A    between atoms: _216  and  _217
REMARK   89  A    between atoms: _217  and  _218
REMARK   90  A    between atoms: _223  and  _225
REMARK   91  A    between atoms: _225  and  _226
REMARK   92  A    between atoms: _228  and  _230
REMARK   93  A    between atoms: _230  and  _231
REMARK   94  A    between atoms: _230  and  _233
REMARK   95  A    between atoms: _233  and  _234
REMARK   96  A    between atoms: _234  and  _235
REMARK   97  A    between atoms: _235  and  _236
REMARK   98  A    between atoms: _236  and  _237
REMARK   99  A    between atoms: _241  and  _243
REMARK  100  A    between atoms: _243  and  _244
REMARK  101  A    between atoms: _243  and  _246
REMARK  102  A    between atoms: _246  and  _247
REMARK  103  A    between atoms: _257  and  _259
REMARK  104  A    between atoms: _259  and  _260
REMARK  105  A    between atoms: _263  and  _265
REMARK  106  A    between atoms: _265  and  _266
REMARK  107  A    between atoms: _265  and  _268
REMARK  108  A    between atoms: _268  and  _269
REMARK  109  A    between atoms: _272  and  _274
REMARK  110  A    between atoms: _274  and  _275
REMARK  111  A    between atoms: _274  and  _277
REMARK  112  A    between atoms: _277  and  _278
REMARK  113  A    between atoms: _281  and  _283
REMARK  114  A    between atoms: _283  and  _284
REMARK  115  A    between atoms: _283  and  _286
REMARK  116  A    between atoms: _286  and  _287
REMARK  117  A    between atoms: _287  and  _288
REMARK  118  A    between atoms: _288  and  _289
REMARK  119  A    between atoms: _289  and  _290
REMARK  120  A    between atoms: _294  and  _296
REMARK  121  A    between atoms: _296  and  _297
REMARK  122  A    between atoms: _296  and  _299
REMARK  123  A    between atoms: _299  and  _300
REMARK  124  A    between atoms: _306  and  _308
REMARK  125  A    between atoms: _308  and  _309
REMARK  126  A    between atoms: _308  and  _311
REMARK  127  A    between atoms: _311  and  _312
REMARK  128  A    between atoms: _318  and  _320
REMARK  129  A    between atoms: _320  and  _321
REMARK  130  A    between atoms: _320  and  _323
REMARK  131  A    between atoms: _323  and  _324
REMARK  132  A    between atoms: _327  and  _329
REMARK  133  A    between atoms: _329  and  _330
REMARK  134  A    between atoms: _329  and  _332
REMARK  135  A    between atoms: _332  and  _333
REMARK  136  A    between atoms: _335  and  _337
REMARK  137  A    between atoms: _337  and  _338
REMARK  138  A    between atoms: _337  and  _340
REMARK  139  A    between atoms: _340  and  _341
REMARK  140  A    between atoms: _351  and  _353
REMARK  141  A    between atoms: _353  and  _354
REMARK  142  A    between atoms: _356  and  _358
REMARK  143  A    between atoms: _358  and  _359
REMARK  144  A    between atoms: _358  and  _361
REMARK  145  A    between atoms: _361  and  _362
REMARK  146  A    between atoms: _365  and  _367
REMARK  147  A    between atoms: _367  and  _368
REMARK  148  A    between atoms: _367  and  _370
REMARK  149  A    between atoms: _370  and  _371
REMARK  150  A    between atoms: _374  and  _376
REMARK  151  A    between atoms: _376  and  _377
REMARK  152  A    between atoms: _379  and  _381
REMARK  153  A    between atoms: _381  and  _382
REMARK  154  A    between atoms: _381  and  _384
REMARK  155  A    between atoms: _384  and  _385
REMARK  156  A    between atoms: _388  and  _390
REMARK  157  A    between atoms: _390  and  _391
REMARK  158  A    between atoms: _390  and  _393
REMARK  159  A    between atoms: _393  and  _394
REMARK  160  A    between atoms: _397  and  _399
REMARK  161  A    between atoms: _399  and  _400
REMARK  162  A    between atoms: _403  and  _405
REMARK  163  A    between atoms: _405  and  _406
REMARK  164  A    between atoms: _405  and  _408
REMARK  165  A    between atoms: _408  and  _409
REMARK  166  A    between atoms: _409  and  _410
REMARK  167  A    between atoms: _410  and  _411
REMARK  168  A    between atoms: _421  and  _422
REMARK  169  A    between atoms: _427  and  _429
REMARK  170  A    between atoms: _429  and  _430
REMARK  171  A    between atoms: _429  and  _432
REMARK  172  A    between atoms: _432  and  _433
REMARK  173  A    between atoms: _436  and  _438
REMARK  174  A    between atoms: _438  and  _439
REMARK  175  A    between atoms: _438  and  _441
REMARK  176  A    between atoms: _441  and  _442
REMARK  177  A    between atoms: _447  and  _448
REMARK  178  A    between atoms: _450  and  _452
REMARK  179  A    between atoms: _452  and  _453
REMARK  180  A    between atoms: _452  and  _455
REMARK  181  A    between atoms: _455  and  _456
REMARK  182  A    between atoms: _459  and  _461
REMARK  183  A    between atoms: _461  and  _462
REMARK  184  A    between atoms: _461  and  _464
REMARK  185  A    between atoms: _467  and  _469
REMARK  186  A    between atoms: _469  and  _470
REMARK  187  A    between atoms: _469  and  _472
REMARK  188  A    between atoms: _472  and  _473
REMARK  189  A    between atoms: _476  and  _478
REMARK  190  A    between atoms: _478  and  _479
REMARK  191  A    between atoms: _478  and  _481
REMARK  192  A    between atoms: _481  and  _482
REMARK  193  A    between atoms: _484  and  _486
REMARK  194  A    between atoms: _486  and  _487
REMARK  195  A    between atoms: _489  and  _491
REMARK  196  A    between atoms: _491  and  _492
REMARK  197  A    between atoms: _491  and  _494
REMARK  198  A    between atoms: _494  and  _495
REMARK  199  A    between atoms: _498  and  _500
REMARK  200  A    between atoms: _500  and  _501
REMARK  201  A    between atoms: _500  and  _503
REMARK  202  A    between atoms: _503  and  _504
REMARK  203  A    between atoms: _507  and  _509
REMARK  204  A    between atoms: _509  and  _510
REMARK  205  A    between atoms: _509  and  _512
REMARK  206  A    between atoms: _512  and  _513
REMARK  207  A    between atoms: _518  and  _520
REMARK  208  A    between atoms: _520  and  _521
REMARK  209  A    between atoms: _520  and  _523
REMARK  210  A    between atoms: _523  and  _524
REMARK  211  A    between atoms: _524  and  _525
REMARK  212  A    between atoms: _525  and  _526
REMARK  213  A    between atoms: _535  and  _537
REMARK  214  A    between atoms: _537  and  _538
REMARK  215  A    between atoms: _537  and  _540
REMARK  216  A    between atoms: _543  and  _545
REMARK  217  A    between atoms: _545  and  _546
REMARK  218  A    between atoms: _548  and  _550
REMARK  219  A    between atoms: _550  and  _551
REMARK  220  A    between atoms: _554  and  _556
REMARK  221  A    between atoms: _556  and  _557
REMARK  222  A    between atoms: _556  and  _559
REMARK                            x       y       z     vdW  Elec       q    Type
REMARK                         _______ _______ _______ _____ _____    ______ ____
ROOT
ATOM      1  CA  VAL A   1      24.877  11.355  33.663  0.00  0.00    +0.133 C 
ENDROOT
BRANCH   1   2
ATOM      2  CB  VAL A   1      24.788  12.027  32.283  0.00  0.00    +0.023 C 
ATOM      3  CG2 VAL A   1      23.481  12.770  32.138  0.00  0.00    +0.002 C 
ATOM      4  CG1 VAL A   1      24.934  10.972  31.195  0.00  0.00    +0.002 C 
ENDBRANCH   1   2
BRANCH   1   5
ATOM      5  N   VAL A   1      24.711  12.292  34.766  0.00  0.00    -0.239 NA
ATOM      6  H   VAL A   1      25.426  13.030  34.924  0.00  0.00    +0.142 HD
ENDBRANCH   1   5
BRANCH   1   7
ATOM      7  C   VAL A   1      26.264  10.741  33.788  0.00  0.00    +0.224 C 
ATOM      8  O   VAL A   1      27.276  11.442  33.677  0.00  0.00    -0.287 OA
ENDBRANCH   1   7
TORSDOF 3
REMARK  Name = ../refined-set-2016/4h3f/4h3f_pocket.pdb
REMARK  222 active torsions:
REMARK  status: ('A' for Active; 'I' for Inactive)
REMARK    1  A    between atoms: _1  and  _3
REMARK    2  A    between atoms: _3  and  _4
REMARK    3  A    between atoms: _3  and  _6
REMARK    4  A    between atoms: _6  and  _7
REMARK    5  A    between atoms: _7  and  _8
REMARK    6  A    between atoms: _8  and  _9
REMARK    7  A    between atoms: _9  and  _10
REMARK    8  A    between atoms: _14  and  _16
REMARK    9  A    between atoms: _16  and  _17
REMARK   10  A    between atoms: _16  and  _19
REMARK   11  A    between atoms: _19  and  _20
REMARK   12  A    between atoms: _22  and  _24
REMARK   13  A    between atoms: _24  and  _25
REMARK   14  A    between atoms: _27  and  _29
REMARK   15  A    between atoms: _29  and  _30
REMARK   16  A    between atoms: _29  and  _32
REMARK   17  A    between atoms: _32  and  _33
REMARK   18  A    between atoms: _33  and  _34
REMARK   19  A    between atoms: _39  and  _41
REMARK   20  A    between atoms: _41  and  _42
REMARK   21  A    between atoms: _44  and  _46
REMARK   22  A    between atoms: _46  and  _47
REMARK   23  A    between atoms: _46  and  _49
REMARK   24  A    between atoms: _49  and  _50
REMARK   25  A    between atoms: _55  and  _56
REMARK   26  A    between atoms: _58  and  _60
REMARK   27  A    between atoms: _60  and  _61
REMARK   28  A    between atoms: _60  and  _63
REMARK   29  A    between atoms: _63  and  _64
REMARK   30  A    between atoms: _67  and  _69
REMARK   31  A    between atoms: _69  and  _70
REMARK   32  A    between atoms: _69  and  _72
REMARK   33  A    between atoms: _75  and  _77
REMARK   34  A    between atoms: _77  and  _78
REMARK   35  A    between atoms: _77  and  _80
REMARK   36  A    between atoms: _80  and  _81
REMARK   37  A    between atoms: _84  and  _86
REMARK   38  A    between atoms: _86  and  _87
REMARK   39  A    between atoms: _86  and  _89
REMARK   40  A    between atoms: _89  and  _90
REMARK   41  A    between atoms: _93  and  _95
REMARK   42  A    between atoms: _95  and  _96
REMARK   43  A    between atoms: _98  and  _100
REMARK   44  A    between atoms: _100  and  _101
REMARK   45  A    between atoms: _100  and  _103
REMARK   46  A    between atoms: _103  and  _104
REMARK   47  A    between atoms: _106  and  _108
REMARK   48  A    between atoms: _108  and  _109
REMARK   49  A    between atoms: _108  and  _111
REMARK   50  A    between atoms: _111  and  _112
REMARK   51  A    between atoms: _114  and  _116
REMARK   52  A    between atoms: _116  and  _117
REMARK   53  A    between atoms: _116  and  _119
REMARK   54  A    between atoms: _119  and  _120
REMARK   55  A    between atoms: _125  and  _127
REMARK   56  A    between atoms: _127  and  _128
REMARK   57  A    between atoms: _127  and  _130
REMARK   58  A    between atoms: _130  and  _131
REMARK   59  A    between atoms: _137  and  _139
REMARK   60  A    between atoms: _139  and  _140
REMARK   61  A    between atoms: _143  and  _145
REMARK   62  A    between atoms: _145  and  _146
REMARK   63  A    between atoms: _145  and  _148
REMARK   64  A    between atoms: _151  and  _153
REMARK   65  A    between atoms: _153  and  _154
REMARK   66  A    between atoms: _153  and  _156
REMARK   67  A    between atoms: _159  and  _161
REMARK   68  A    between atoms: _161  and  _162
REMARK   69  A    between atoms: _161  and  _164
REMARK   70  A    between atoms: _164  and  _165
REMARK   71  A    between atoms: _170  and  _171
REMARK   72  A    between atoms: _173  and  _175
REMARK   73  A    between atoms: _175  and  _176
REMARK   74  A    between atoms: _175  and  _178
REMARK   75  A    between atoms: _182  and  _183
REMARK   76  A    between atoms: _188  and  _190
REMARK   77  A    between atoms: _190  and  _191
REMARK   78  A    between atoms: _190  and  _193
REMARK   79  A    between atoms: _193  and  _194
REMARK   80  A    between atoms: _199  and  _200
REMARK   81  A    between atoms: _202  and  _204
REMARK   82  A    between atoms: _204  and  _205
REMARK   83  A    between atoms: _204  and  _207
REMARK   84  A    between atoms: _207  and  _208
REMARK   85  A    between atoms: _211  and  _213
REMARK   86  A    between atoms: _213  and  _214
REMARK   87  A    between atoms: _213  and  _216
REMARK   88  A    between atoms: _216  and  _217
REMARK   89  A    between atoms: _217  and  _218
REMARK   90  A    between atoms: _223  and  _225
REMARK   91  A    between atoms: _225  and  _226
REMARK   92  A    between atoms: _228  and  _230
REMARK   93  A    between atoms: _230  and  _231
REMARK   94  A    between atoms: _230  and  _233
REMARK   95  A    between atoms: _233  and  _234
REMARK   96  A    between atoms: _234  and  _235
REMARK   97  A    between atoms: _235  and  _236
REMARK   98  A    between atoms: _236  and  _237
REMARK   99  A    between atoms: _241  and  _243
REMARK  100  A    between atoms: _243  and  _244
REMARK  101  A    between atoms: _243  and  _246
REMARK  102  A    between atoms: _246  and  _247
REMARK  103  A    between atoms: _257  and  _259
REMARK  104  A    between atoms: _259  and  _260
REMARK  105  A    between atoms: _263  and  _265
REMARK  106  A    between atoms: _265  and  _266
REMARK  107  A    between atoms: _265  and  _268
REMARK  108  A    between atoms: _268  and  _269
REMARK  109  A    between atoms: _272  and  _274
REMARK  110  A    between atoms: _274  and  _275
REMARK  111  A    between atoms: _274  and  _277
REMARK  112  A    between atoms: _277  and  _278
REMARK  113  A    between atoms: _281  and  _283
REMARK  114  A    between atoms: _283  and  _284
REMARK  115  A    between atoms: _283  and  _286
REMARK  116  A    between atoms: _286  and  _287
REMARK  117  A    between atoms: _287  and  _288
REMARK  118  A    between atoms: _288  and  _289
REMARK  119  A    between atoms: _289  and  _290
REMARK  120  A    between atoms: _294  and  _296
REMARK  121  A    between atoms: _296  and  _297
REMARK  122  A    between atoms: _296  and  _299
REMARK  123  A    between atoms: _299  and  _300
REMARK  124  A    between atoms: _306  and  _308
REMARK  125  A    between atoms: _308  and  _309
REMARK  126  A    between atoms: _308  and  _311
REMARK  127  A    between atoms: _311  and  _312
REMARK  128  A    between atoms: _318  and  _320
REMARK  129  A    between atoms: _320  and  _321
REMARK  130  A    between atoms: _320  and  _323
REMARK  131  A    between atoms: _323  and  _324
REMARK  132  A    between atoms: _327  and  _329
REMARK  133  A    between atoms: _329  and  _330
REMARK  134  A    between atoms: _329  and  _332
REMARK  135  A    between atoms: _332  and  _333
REMARK  136  A    between atoms: _335  and  _337
REMARK  137  A    between atoms: _337  and  _338
REMARK  138  A    between atoms: _337  and  _340
REMARK  139  A    between atoms: _340  and  _341
REMARK  140  A    between atoms: _351  and  _353
REMARK  141  A    between atoms: _353  and  _354
REMARK  142  A    between atoms: _356  and  _358
REMARK  143  A    between atoms: _358  and  _359
REMARK  144  A    between atoms: _358  and  _361
REMARK  145  A    between atoms: _361  and  _362
REMARK  146  A    between atoms: _365  and  _367
REMARK  147  A    between atoms: _367  and  _368
REMARK  148  A    between atoms: _367  and  _370
REMARK  149  A    between atoms: _370  and  _371
REMARK  150  A    between atoms: _374  and  _376
REMARK  151  A    between atoms: _376  and  _377
REMARK  152  A    between atoms: _379  and  _381
REMARK  153  A    between atoms: _381  and  _382
REMARK  154  A    between atoms: _381  and  _384
REMARK  155  A    between atoms: _384  and  _385
REMARK  156  A    between atoms: _388  and  _390
REMARK  157  A    between atoms: _390  and  _391
REMARK  158  A    between atoms: _390  and  _393
REMARK  159  A    between atoms: _393  and  _394
REMARK  160  A    between atoms: _397  and  _399
REMARK  161  A    between atoms: _399  and  _400
REMARK  162  A    between atoms: _403  and  _405
REMARK  163  A    between atoms: _405  and  _406
REMARK  164  A    between atoms: _405  and  _408
REMARK  165  A    between atoms: _408  and  _409
REMARK  166  A    between atoms: _409  and  _410
REMARK  167  A    between atoms: _410  and  _411
REMARK  168  A    between atoms: _421  and  _422
REMARK  169  A    between atoms: _427  and  _429
REMARK  170  A    between atoms: _429  and  _430
REMARK  171  A    between atoms: _429  and  _432
REMARK  172  A    between atoms: _432  and  _433
REMARK  173  A    between atoms: _436  and  _438
REMARK  174  A    between atoms: _438  and  _439
REMARK  175  A    between atoms: _438  and  _441
REMARK  176  A    between atoms: _441  and  _442
REMARK  177  A    between atoms: _447  and  _448
REMARK  178  A    between atoms: _450  and  _452
REMARK  179  A    between atoms: _452  and  _453
REMARK  180  A    between atoms: _452  and  _455
REMARK  181  A    between atoms: _455  and  _456
REMARK  182  A    between atoms: _459  and  _461
REMARK  183  A    between atoms: _461  and  _462
REMARK  184  A    between atoms: _461  and  _464
REMARK  185  A    between atoms: _467  and  _469
REMARK  186  A    between atoms: _469  and  _470
REMARK  187  A    between atoms: _469  and  _472
REMARK  188  A    between atoms: _472  and  _473
REMARK  189  A    between atoms: _476  and  _478
REMARK  190  A    between atoms: _478  and  _479
REMARK  191  A    between atoms: _478  and  _481
REMARK  192  A    between atoms: _481  and  _482
REMARK  193  A    between atoms: _484  and  _486
REMARK  194  A    between atoms: _486  and  _487
REMARK  195  A    between atoms: _489  and  _491
REMARK  196  A    between atoms: _491  and  _492
REMARK  197  A    between atoms: _491  and  _494
REMARK  198  A    between atoms: _494  and  _495
REMARK  199  A    between atoms: _498  and  _500
REMARK  200  A    between atoms: _500  and  _501
REMARK  201  A    between atoms: _500  and  _503
REMARK  202  A    between atoms: _503  and  _504
REMARK  203  A    between atoms: _507  and  _509
REMARK  204  A    between atoms: _509  and  _510
REMARK  205  A    between atoms: _509  and  _512
REMARK  206  A    between atoms: _512  and  _513
REMARK  207  A    between atoms: _518  and  _520
REMARK  208  A    between atoms: _520  and  _521
REMARK  209  A    between atoms: _520  and  _523
REMARK  210  A    between atoms: _523  and  _524
REMARK  211  A    between atoms: _524  and  _525
REMARK  212  A    between atoms: _525  and  _526
REMARK  213  A    between atoms: _535  and  _537
REMARK  214  A    between atoms: _537  and  _538
REMARK  215  A    between atoms: _537  and  _540
REMARK  216  A    between atoms: _543  and  _545
REMARK  217  A    between atoms: _545  and  _546
REMARK  218  A    between atoms: _548  and  _550
REMARK  219  A    between atoms: _550  and  _551
REMARK  220  A    between atoms: _554  and  _556
REMARK  221  A    between atoms: _556  and  _557
REMARK  222  A    between atoms: _556  and  _559
REMARK                            x       y       z     vdW  Elec       q    Type
REMARK                         _______ _______ _______ _____ _____    ______ ____
ROOT
ATOM      1  C   ALA A   2      33.164   7.518  29.706  0.00  0.00    +0.241 C 
ATOM      2  N   VAL A   3      33.461   8.736  30.148  0.00  0.00    -0.298 N 
ATOM      3  H   VAL A   3      32.853   9.549  29.921  0.00  0.00    +0.150 HD
ATOM      4  O   ALA A   2      33.856   6.541  29.977  0.00  0.00    -0.273 OA
ENDROOT
BRANCH   1   5
ATOM      5  CA  ALA A   2      31.930   7.351  28.846  0.00  0.00    +0.149 C 
ATOM      6  CB  ALA A   2      32.264   7.672  27.398  0.00  0.00    +0.031 C 
BRANCH   5   9
ATOM      7  C   GLY A   1      30.259   8.065  30.485  0.00  0.00    +0.240 C 
ATOM      8  O   GLY A   1      30.748   7.421  31.410  0.00  0.00    -0.274 OA
ATOM      9  N   ALA A   2      30.764   8.110  29.258  0.00  0.00    -0.297 N 
ATOM     10  H   ALA A   2      30.300   8.721  28.556  0.00  0.00    +0.150 HD
BRANCH   7  11
ATOM     11  CA  GLY A   1      29.015   8.900  30.683  0.00  0.00    +0.169 C 
BRANCH  11  12
ATOM     12  N   GLY A   1      28.654   9.146  32.061  0.00  0.00    -0.236 NA
ATOM     13  H   GLY A   1      28.991  10.014  32.525  0.00  0.00    +0.142 HD
ENDBRANCH  11  12
ENDBRANCH   7  11
ENDBRANCH   5   9
ENDBRANCH   1   5
BRANCH   2  14
ATOM     14  CA  VAL A   3      34.658   8.903  30.957  0.00  0.00    +0.137 C 
BRANCH  14  15
ATOM     15  CB  VAL A   3      35.053  10.402  31.096  0.00  0.00    +0.026 C 
ATOM     16  CG2 VAL A   3      33.928  11.210  31.697  0.00  0.00    +0.002 C 
ATOM     17  CG1 VAL A   3      35.424  10.943  29.711  0.00  0.00    +0.002 C 
ENDBRANCH  14  15
BRANCH  14  18
ATOM     18  C   VAL A   3      34.532   8.202  32.308  0.00  0.00    +0.227 C 
ATOM     19  O   VAL A   3      35.534   7.892  32.946  0.00  0.00    -0.286 OA
ENDBRANCH  14  18
ENDBRANCH   2  14
TORSDOF 7
REMARK  Name = ../refined-set-2016/4h3f/4h3f_pocket.pdb
REMARK  222 active torsions:
REMARK  status: ('A' for Active; 'I' for Inactive)
REMARK    1  A    between atoms: _1  and  _3
REMARK    2  A    between atoms: _3  and  _4
REMARK    3  A    between atoms: _3  and  _6
REMARK    4  A    between atoms: _6  and  _7
REMARK    5  A    between atoms: _7  and  _8
REMARK    6  A    between atoms: _8  and  _9
REMARK    7  A    between atoms: _9  and  _10
REMARK    8  A    between atoms: _14  and  _16
REMARK    9  A    between atoms: _16  and  _17
REMARK   10  A    between atoms: _16  and  _19
REMARK   11  A    between atoms: _19  and  _20
REMARK   12  A    between atoms: _22  and  _24
REMARK   13  A    between atoms: _24  and  _25
REMARK   14  A    between atoms: _27  and  _29
REMARK   15  A    between atoms: _29  and  _30
REMARK   16  A    between atoms: _29  and  _32
REMARK   17  A    between atoms: _32  and  _33
REMARK   18  A    between atoms: _33  and  _34
REMARK   19  A    between atoms: _39  and  _41
REMARK   20  A    between atoms: _41  and  _42
REMARK   21  A    between atoms: _44  and  _46
REMARK   22  A    between atoms: _46  and  _47
REMARK   23  A    between atoms: _46  and  _49
REMARK   24  A    between atoms: _49  and  _50
REMARK   25  A    between atoms: _55  and  _56
REMARK   26  A    between atoms: _58  and  _60
REMARK   27  A    between atoms: _60  and  _61
REMARK   28  A    between atoms: _60  and  _63
REMARK   29  A    between atoms: _63  and  _64
REMARK   30  A    between atoms: _67  and  _69
REMARK   31  A    between atoms: _69  and  _70
REMARK   32  A    between atoms: _69  and  _72
REMARK   33  A    between atoms: _75  and  _77
REMARK   34  A    between atoms: _77  and  _78
REMARK   35  A    between atoms: _77  and  _80
REMARK   36  A    between atoms: _80  and  _81
REMARK   37  A    between atoms: _84  and  _86
REMARK   38  A    between atoms: _86  and  _87
REMARK   39  A    between atoms: _86  and  _89
REMARK   40  A    between atoms: _89  and  _90
REMARK   41  A    between atoms: _93  and  _95
REMARK   42  A    between atoms: _95  and  _96
REMARK   43  A    between atoms: _98  and  _100
REMARK   44  A    between atoms: _100  and  _101
REMARK   45  A    between atoms: _100  and  _103
REMARK   46  A    between atoms: _103  and  _104
REMARK   47  A    between atoms: _106  and  _108
REMARK   48  A    between atoms: _108  and  _109
REMARK   49  A    between atoms: _108  and  _111
REMARK   50  A    between atoms: _111  and  _112
REMARK   51  A    between atoms: _114  and  _116
REMARK   52  A    between atoms: _116  and  _117
REMARK   53  A    between atoms: _116  and  _119
REMARK   54  A    between atoms: _119  and  _120
REMARK   55  A    between atoms: _125  and  _127
REMARK   56  A    between atoms: _127  and  _128
REMARK   57  A    between atoms: _127  and  _130
REMARK   58  A    between atoms: _130  and  _131
REMARK   59  A    between atoms: _137  and  _139
REMARK   60  A    between atoms: _139  and  _140
REMARK   61  A    between atoms: _143  and  _145
REMARK   62  A    between atoms: _145  and  _146
REMARK   63  A    between atoms: _145  and  _148
REMARK   64  A    between atoms: _151  and  _153
REMARK   65  A    between atoms: _153  and  _154
REMARK   66  A    between atoms: _153  and  _156
REMARK   67  A    between atoms: _159  and  _161
REMARK   68  A    between atoms: _161  and  _162
REMARK   69  A    between atoms: _161  and  _164
REMARK   70  A    between atoms: _164  and  _165
REMARK   71  A    between atoms: _170  and  _171
REMARK   72  A    between atoms: _173  and  _175
REMARK   73  A    between atoms: _175  and  _176
REMARK   74  A    between atoms: _175  and  _178
REMARK   75  A    between atoms: _182  and  _183
REMARK   76  A    between atoms: _188  and  _190
REMARK   77  A    between atoms: _190  and  _191
REMARK   78  A    between atoms: _190  and  _193
REMARK   79  A    between atoms: _193  and  _194
REMARK   80  A    between atoms: _199  and  _200
REMARK   81  A    between atoms: _202  and  _204
REMARK   82  A    between atoms: _204  and  _205
REMARK   83  A    between atoms: _204  and  _207
REMARK   84  A    between atoms: _207  and  _208
REMARK   85  A    between atoms: _211  and  _213
REMARK   86  A    between atoms: _213  and  _214
REMARK   87  A    between atoms: _213  and  _216
REMARK   88  A    between atoms: _216  and  _217
REMARK   89  A    between atoms: _217  and  _218
REMARK   90  A    between atoms: _223  and  _225
REMARK   91  A    between atoms: _225  and  _226
REMARK   92  A    between atoms: _228  and  _230
REMARK   93  A    between atoms: _230  and  _231
REMARK   94  A    between atoms: _230  and  _233
REMARK   95  A    between atoms: _233  and  _234
REMARK   96  A    between atoms: _234  and  _235
REMARK   97  A    between atoms: _235  and  _236
REMARK   98  A    between atoms: _236  and  _237
REMARK   99  A    between atoms: _241  and  _243
REMARK  100  A    between atoms: _243  and  _244
REMARK  101  A    between atoms: _243  and  _246
REMARK  102  A    between atoms: _246  and  _247
REMARK  103  A    between atoms: _257  and  _259
REMARK  104  A    between atoms: _259  and  _260
REMARK  105  A    between atoms: _263  and  _265
REMARK  106  A    between atoms: _265  and  _266
REMARK  107  A    between atoms: _265  and  _268
REMARK  108  A    between atoms: _268  and  _269
REMARK  109  A    between atoms: _272  and  _274
REMARK  110  A    between atoms: _274  and  _275
REMARK  111  A    between atoms: _274  and  _277
REMARK  112  A    between atoms: _277  and  _278
REMARK  113  A    between atoms: _281  and  _283
REMARK  114  A    between atoms: _283  and  _284
REMARK  115  A    between atoms: _283  and  _286
REMARK  116  A    between atoms: _286  and  _287
REMARK  117  A    between atoms: _287  and  _288
REMARK  118  A    between atoms: _288  and  _289
REMARK  119  A    between atoms: _289  and  _290
REMARK  120  A    between atoms: _294  and  _296
REMARK  121  A    between atoms: _296  and  _297
REMARK  122  A    between atoms: _296  and  _299
REMARK  123  A    between atoms: _299  and  _300
REMARK  124  A    between atoms: _306  and  _308
REMARK  125  A    between atoms: _308  and  _309
REMARK  126  A    between atoms: _308  and  _311
REMARK  127  A    between atoms: _311  and  _312
REMARK  128  A    between atoms: _318  and  _320
REMARK  129  A    between atoms: _320  and  _321
REMARK  130  A    between atoms: _320  and  _323
REMARK  131  A    between atoms: _323  and  _324
REMARK  132  A    between atoms: _327  and  _329
REMARK  133  A    between atoms: _329  and  _330
REMARK  134  A    between atoms: _329  and  _332
REMARK  135  A    between atoms: _332  and  _333
REMARK  136  A    between atoms: _335  and  _337
REMARK  137  A    between atoms: _337  and  _338
REMARK  138  A    between atoms: _337  and  _340
REMARK  139  A    between atoms: _340  and  _341
REMARK  140  A    between atoms: _351  and  _353
REMARK  141  A    between atoms: _353  and  _354
REMARK  142  A    between atoms: _356  and  _358
REMARK  143  A    between atoms: _358  and  _359
REMARK  144  A    between atoms: _358  and  _361
REMARK  145  A    between atoms: _361  and  _362
REMARK  146  A    between atoms: _365  and  _367
REMARK  147  A    between atoms: _367  and  _368
REMARK  148  A    between atoms: _367  and  _370
REMARK  149  A    between atoms: _370  and  _371
REMARK  150  A    between atoms: _374  and  _376
REMARK  151  A    between atoms: _376  and  _377
REMARK  152  A    between atoms: _379  and  _381
REMARK  153  A    between atoms: _381  and  _382
REMARK  154  A    between atoms: _381  and  _384
REMARK  155  A    between atoms: _384  and  _385
REMARK  156  A    between atoms: _388  and  _390
REMARK  157  A    between atoms: _390  and  _391
REMARK  158  A    between atoms: _390  and  _393
REMARK  159  A    between atoms: _393  and  _394
REMARK  160  A    between atoms: _397  and  _399
REMARK  161  A    between atoms: _399  and  _400
REMARK  162  A    between atoms: _403  and  _405
REMARK  163  A    between atoms: _405  and  _406
REMARK  164  A    between atoms: _405  and  _408
REMARK  165  A    between atoms: _408  and  _409
REMARK  166  A    between atoms: _409  and  _410
REMARK  167  A    between atoms: _410  and  _411
REMARK  168  A    between atoms: _421  and  _422
REMARK  169  A    between atoms: _427  and  _429
REMARK  170  A    between atoms: _429  and  _430
REMARK  171  A    between atoms: _429  and  _432
REMARK  172  A    between atoms: _432  and  _433
REMARK  173  A    between atoms: _436  and  _438
REMARK  174  A    between atoms: _438  and  _439
REMARK  175  A    between atoms: _438  and  _441
REMARK  176  A    between atoms: _441  and  _442
REMARK  177  A    between atoms: _447  and  _448
REMARK  178  A    between atoms: _450  and  _452
REMARK  179  A    between atoms: _452  and  _453
REMARK  180  A    between atoms: _452  and  _455
REMARK  181  A    between atoms: _455  and  _456
REMARK  182  A    between atoms: _459  and  _461
REMARK  183  A    between atoms: _461  and  _462
REMARK  184  A    between atoms: _461  and  _464
REMARK  185  A    between atoms: _467  and  _469
REMARK  186  A    between atoms: _469  and  _470
REMARK  187  A    between atoms: _469  and  _472
REMARK  188  A    between atoms: _472  and  _473
REMARK  189  A    between atoms: _476  and  _478
REMARK  190  A    between atoms: _478  and  _479
REMARK  191  A    between atoms: _478  and  _481
REMARK  192  A    between atoms: _481  and  _482
REMARK  193  A    between atoms: _484  and  _486
REMARK  194  A    between atoms: _486  and  _487
REMARK  195  A    between atoms: _489  and  _491
REMARK  196  A    between atoms: _491  and  _492
REMARK  197  A    between atoms: _491  and  _494
REMARK  198  A    between atoms: _494  and  _495
REMARK  199  A    between atoms: _498  and  _500
REMARK  200  A    between atoms: _500  and  _501
REMARK  201  A    between atoms: _500  and  _503
REMARK  202  A    between atoms: _503  and  _504
REMARK  203  A    between atoms: _507  and  _509
REMARK  204  A    between atoms: _509  and  _510
REMARK  205  A    between atoms: _509  and  _512
REMARK  206  A    between atoms: _512  and  _513
REMARK  207  A    between atoms: _518  and  _520
REMARK  208  A    between atoms: _520  and  _521
REMARK  209  A    between atoms: _520  and  _523
REMARK  210  A    between atoms: _523  and  _524
REMARK  211  A    between atoms: _524  and  _525
REMARK  212  A    between atoms: _525  and  _526
REMARK  213  A    between atoms: _535  and  _537
REMARK  214  A    between atoms: _537  and  _538
REMARK  215  A    between atoms: _537  and  _540
REMARK  216  A    between atoms: _543  and  _545
REMARK  217  A    between atoms: _545  and  _546
REMARK  218  A    between atoms: _548  and  _550
REMARK  219  A    between atoms: _550  and  _551
REMARK  220  A    between atoms: _554  and  _556
REMARK  221  A    between atoms: _556  and  _557
REMARK  222  A    between atoms: _556  and  _559
REMARK                            x       y       z     vdW  Elec       q    Type
REMARK                         _______ _______ _______ _____ _____    ______ ____
ROOT
ATOM      1  O   HOH     1      16.483  -0.228  20.174  0.00  0.00    +0.000 OA
ENDROOT
TORSDOF 0
REMARK  Name = ../refined-set-2016/4h3f/4h3f_pocket.pdb
REMARK  222 active torsions:
REMARK  status: ('A' for Active; 'I' for Inactive)
REMARK    1  A    between atoms: _1  and  _3
REMARK    2  A    between atoms: _3  and  _4
REMARK    3  A    between atoms: _3  and  _6
REMARK    4  A    between atoms: _6  and  _7
REMARK    5  A    between atoms: _7  and  _8
REMARK    6  A    between atoms: _8  and  _9
REMARK    7  A    between atoms: _9  and  _10
REMARK    8  A    between atoms: _14  and  _16
REMARK    9  A    between atoms: _16  and  _17
REMARK   10  A    between atoms: _16  and  _19
REMARK   11  A    between atoms: _19  and  _20
REMARK   12  A    between atoms: _22  and  _24
REMARK   13  A    between atoms: _24  and  _25
REMARK   14  A    between atoms: _27  and  _29
REMARK   15  A    between atoms: _29  and  _30
REMARK   16  A    between atoms: _29  and  _32
REMARK   17  A    between atoms: _32  and  _33
REMARK   18  A    between atoms: _33  and  _34
REMARK   19  A    between atoms: _39  and  _41
REMARK   20  A    between atoms: _41  and  _42
REMARK   21  A    between atoms: _44  and  _46
REMARK   22  A    between atoms: _46  and  _47
REMARK   23  A    between atoms: _46  and  _49
REMARK   24  A    between atoms: _49  and  _50
REMARK   25  A    between atoms: _55  and  _56
REMARK   26  A    between atoms: _58  and  _60
REMARK   27  A    between atoms: _60  and  _61
REMARK   28  A    between atoms: _60  and  _63
REMARK   29  A    between atoms: _63  and  _64
REMARK   30  A    between atoms: _67  and  _69
REMARK   31  A    between atoms: _69  and  _70
REMARK   32  A    between atoms: _69  and  _72
REMARK   33  A    between atoms: _75  and  _77
REMARK   34  A    between atoms: _77  and  _78
REMARK   35  A    between atoms: _77  and  _80
REMARK   36  A    between atoms: _80  and  _81
REMARK   37  A    between atoms: _84  and  _86
REMARK   38  A    between atoms: _86  and  _87
REMARK   39  A    between atoms: _86  and  _89
REMARK   40  A    between atoms: _89  and  _90
REMARK   41  A    between atoms: _93  and  _95
REMARK   42  A    between atoms: _95  and  _96
REMARK   43  A    between atoms: _98  and  _100
REMARK   44  A    between atoms: _100  and  _101
REMARK   45  A    between atoms: _100  and  _103
REMARK   46  A    between atoms: _103  and  _104
REMARK   47  A    between atoms: _106  and  _108
REMARK   48  A    between atoms: _108  and  _109
REMARK   49  A    between atoms: _108  and  _111
REMARK   50  A    between atoms: _111  and  _112
REMARK   51  A    between atoms: _114  and  _116
REMARK   52  A    between atoms: _116  and  _117
REMARK   53  A    between atoms: _116  and  _119
REMARK   54  A    between atoms: _119  and  _120
REMARK   55  A    between atoms: _125  and  _127
REMARK   56  A    between atoms: _127  and  _128
REMARK   57  A    between atoms: _127  and  _130
REMARK   58  A    between atoms: _130  and  _131
REMARK   59  A    between atoms: _137  and  _139
REMARK   60  A    between atoms: _139  and  _140
REMARK   61  A    between atoms: _143  and  _145
REMARK   62  A    between atoms: _145  and  _146
REMARK   63  A    between atoms: _145  and  _148
REMARK   64  A    between atoms: _151  and  _153
REMARK   65  A    between atoms: _153  and  _154
REMARK   66  A    between atoms: _153  and  _156
REMARK   67  A    between atoms: _159  and  _161
REMARK   68  A    between atoms: _161  and  _162
REMARK   69  A    between atoms: _161  and  _164
REMARK   70  A    between atoms: _164  and  _165
REMARK   71  A    between atoms: _170  and  _171
REMARK   72  A    between atoms: _173  and  _175
REMARK   73  A    between atoms: _175  and  _176
REMARK   74  A    between atoms: _175  and  _178
REMARK   75  A    between atoms: _182  and  _183
REMARK   76  A    between atoms: _188  and  _190
REMARK   77  A    between atoms: _190  and  _191
REMARK   78  A    between atoms: _190  and  _193
REMARK   79  A    between atoms: _193  and  _194
REMARK   80  A    between atoms: _199  and  _200
REMARK   81  A    between atoms: _202  and  _204
REMARK   82  A    between atoms: _204  and  _205
REMARK   83  A    between atoms: _204  and  _207
REMARK   84  A    between atoms: _207  and  _208
REMARK   85  A    between atoms: _211  and  _213
REMARK   86  A    between atoms: _213  and  _214
REMARK   87  A    between atoms: _213  and  _216
REMARK   88  A    between atoms: _216  and  _217
REMARK   89  A    between atoms: _217  and  _218
REMARK   90  A    between atoms: _223  and  _225
REMARK   91  A    between atoms: _225  and  _226
REMARK   92  A    between atoms: _228  and  _230
REMARK   93  A    between atoms: _230  and  _231
REMARK   94  A    between atoms: _230  and  _233
REMARK   95  A    between atoms: _233  and  _234
REMARK   96  A    between atoms: _234  and  _235
REMARK   97  A    between atoms: _235  and  _236
REMARK   98  A    between atoms: _236  and  _237
REMARK   99  A    between atoms: _241  and  _243
REMARK  100  A    between atoms: _243  and  _244
REMARK  101  A    between atoms: _243  and  _246
REMARK  102  A    between atoms: _246  and  _247
REMARK  103  A    between atoms: _257  and  _259
REMARK  104  A    between atoms: _259  and  _260
REMARK  105  A    between atoms: _263  and  _265
REMARK  106  A    between atoms: _265  and  _266
REMARK  107  A    between atoms: _265  and  _268
REMARK  108  A    between atoms: _268  and  _269
REMARK  109  A    between atoms: _272  and  _274
REMARK  110  A    between atoms: _274  and  _275
REMARK  111  A    between atoms: _274  and  _277
REMARK  112  A    between atoms: _277  and  _278
REMARK  113  A    between atoms: _281  and  _283
REMARK  114  A    between atoms: _283  and  _284
REMARK  115  A    between atoms: _283  and  _286
REMARK  116  A    between atoms: _286  and  _287
REMARK  117  A    between atoms: _287  and  _288
REMARK  118  A    between atoms: _288  and  _289
REMARK  119  A    between atoms: _289  and  _290
REMARK  120  A    between atoms: _294  and  _296
REMARK  121  A    between atoms: _296  and  _297
REMARK  122  A    between atoms: _296  and  _299
REMARK  123  A    between atoms: _299  and  _300
REMARK  124  A    between atoms: _306  and  _308
REMARK  125  A    between atoms: _308  and  _309
REMARK  126  A    between atoms: _308  and  _311
REMARK  127  A    between atoms: _311  and  _312
REMARK  128  A    between atoms: _318  and  _320
REMARK  129  A    between atoms: _320  and  _321
REMARK  130  A    between atoms: _320  and  _323
REMARK  131  A    between atoms: _323  and  _324
REMARK  132  A    between atoms: _327  and  _329
REMARK  133  A    between atoms: _329  and  _330
REMARK  134  A    between atoms: _329  and  _332
REMARK  135  A    between atoms: _332  and  _333
REMARK  136  A    between atoms: _335  and  _337
REMARK  137  A    between atoms: _337  and  _338
REMARK  138  A    between atoms: _337  and  _340
REMARK  139  A    between atoms: _340  and  _341
REMARK  140  A    between atoms: _351  and  _353
REMARK  141  A    between atoms: _353  and  _354
REMARK  142  A    between atoms: _356  and  _358
REMARK  143  A    between atoms: _358  and  _359
REMARK  144  A    between atoms: _358  and  _361
REMARK  145  A    between atoms: _361  and  _362
REMARK  146  A    between atoms: _365  and  _367
REMARK  147  A    between atoms: _367  and  _368
REMARK  148  A    between atoms: _367  and  _370
REMARK  149  A    between atoms: _370  and  _371
REMARK  150  A    between atoms: _374  and  _376
REMARK  151  A    between atoms: _376  and  _377
REMARK  152  A    between atoms: _379  and  _381
REMARK  153  A    between atoms: _381  and  _382
REMARK  154  A    between atoms: _381  and  _384
REMARK  155  A    between atoms: _384  and  _385
REMARK  156  A    between atoms: _388  and  _390
REMARK  157  A    between atoms: _390  and  _391
REMARK  158  A    between atoms: _390  and  _393
REMARK  159  A    between atoms: _393  and  _394
REMARK  160  A    between atoms: _397  and  _399
REMARK  161  A    between atoms: _399  and  _400
REMARK  162  A    between atoms: _403  and  _405
REMARK  163  A    between atoms: _405  and  _406
REMARK  164  A    between atoms: _405  and  _408
REMARK  165  A    between atoms: _408  and  _409
REMARK  166  A    between atoms: _409  and  _410
REMARK  167  A    between atoms: _410  and  _411
REMARK  168  A    between atoms: _421  and  _422
REMARK  169  A    between atoms: _427  and  _429
REMARK  170  A    between atoms: _429  and  _430
REMARK  171  A    between atoms: _429  and  _432
REMARK  172  A    between atoms: _432  and  _433
REMARK  173  A    between atoms: _436  and  _438
REMARK  174  A    between atoms: _438  and  _439
REMARK  175  A    between atoms: _438  and  _441
REMARK  176  A    between atoms: _441  and  _442
REMARK  177  A    between atoms: _447  and  _448
REMARK  178  A    between atoms: _450  and  _452
REMARK  179  A    between atoms: _452  and  _453
REMARK  180  A    between atoms: _452  and  _455
REMARK  181  A    between atoms: _455  and  _456
REMARK  182  A    between atoms: _459  and  _461
REMARK  183  A    between atoms: _461  and  _462
REMARK  184  A    between atoms: _461  and  _464
REMARK  185  A    between atoms: _467  and  _469
REMARK  186  A    between atoms: _469  and  _470
REMARK  187  A    between atoms: _469  and  _472
REMARK  188  A    between atoms: _472  and  _473
REMARK  189  A    between atoms: _476  and  _478
REMARK  190  A    between atoms: _478  and  _479
REMARK  191  A    between atoms: _478  and  _481
REMARK  192  A    between atoms: _481  and  _482
REMARK  193  A    between atoms: _484  and  _486
REMARK  194  A    between atoms: _486  and  _487
REMARK  195  A    between atoms: _489  and  _491
REMARK  196  A    between atoms: _491  and  _492
REMARK  197  A    between atoms: _491  and  _494
REMARK  198  A    between atoms: _494  and  _495
REMARK  199  A    between atoms: _498  and  _500
REMARK  200  A    between atoms: _500  and  _501
REMARK  201  A    between atoms: _500  and  _503
REMARK  202  A    between atoms: _503  and  _504
REMARK  203  A    between atoms: _507  and  _509
REMARK  204  A    between atoms: _509  and  _510
REMARK  205  A    between atoms: _509  and  _512
REMARK  206  A    between atoms: _512  and  _513
REMARK  207  A    between atoms: _518  and  _520
REMARK  208  A    between atoms: _520  and  _521
REMARK  209  A    between atoms: _520  and  _523
REMARK  210  A    between atoms: _523  and  _524
REMARK  211  A    between atoms: _524  and  _525
REMARK  212  A    between atoms: _525  and  _526
REMARK  213  A    between atoms: _535  and  _537
REMARK  214  A    between atoms: _537  and  _538
REMARK  215  A    between atoms: _537  and  _540
REMARK  216  A    between atoms: _543  and  _545
REMARK  217  A    between atoms: _545  and  _546
REMARK  218  A    between atoms: _548  and  _550
REMARK  219  A    between atoms: _550  and  _551
REMARK  220  A    between atoms: _554  and  _556
REMARK  221  A    between atoms: _556  and  _557
REMARK  222  A    between atoms: _556  and  _559
REMARK                            x       y       z     vdW  Elec       q    Type
REMARK                         _______ _______ _______ _____ _____    ______ ____
ROOT
ATOM      1  O   HOH     1      14.024   0.410  17.851  0.00  0.00    +0.000 OA
ENDROOT
TORSDOF 0
REMARK  Name = ../refined-set-2016/4h3f/4h3f_pocket.pdb
REMARK  222 active torsions:
REMARK  status: ('A' for Active; 'I' for Inactive)
REMARK    1  A    between atoms: _1  and  _3
REMARK    2  A    between atoms: _3  and  _4
REMARK    3  A    between atoms: _3  and  _6
REMARK    4  A    between atoms: _6  and  _7
REMARK    5  A    between atoms: _7  and  _8
REMARK    6  A    between atoms: _8  and  _9
REMARK    7  A    between atoms: _9  and  _10
REMARK    8  A    between atoms: _14  and  _16
REMARK    9  A    between atoms: _16  and  _17
REMARK   10  A    between atoms: _16  and  _19
REMARK   11  A    between atoms: _19  and  _20
REMARK   12  A    between atoms: _22  and  _24
REMARK   13  A    between atoms: _24  and  _25
REMARK   14  A    between atoms: _27  and  _29
REMARK   15  A    between atoms: _29  and  _30
REMARK   16  A    between atoms: _29  and  _32
REMARK   17  A    between atoms: _32  and  _33
REMARK   18  A    between atoms: _33  and  _34
REMARK   19  A    between atoms: _39  and  _41
REMARK   20  A    between atoms: _41  and  _42
REMARK   21  A    between atoms: _44  and  _46
REMARK   22  A    between atoms: _46  and  _47
REMARK   23  A    between atoms: _46  and  _49
REMARK   24  A    between atoms: _49  and  _50
REMARK   25  A    between atoms: _55  and  _56
REMARK   26  A    between atoms: _58  and  _60
REMARK   27  A    between atoms: _60  and  _61
REMARK   28  A    between atoms: _60  and  _63
REMARK   29  A    between atoms: _63  and  _64
REMARK   30  A    between atoms: _67  and  _69
REMARK   31  A    between atoms: _69  and  _70
REMARK   32  A    between atoms: _69  and  _72
REMARK   33  A    between atoms: _75  and  _77
REMARK   34  A    between atoms: _77  and  _78
REMARK   35  A    between atoms: _77  and  _80
REMARK   36  A    between atoms: _80  and  _81
REMARK   37  A    between atoms: _84  and  _86
REMARK   38  A    between atoms: _86  and  _87
REMARK   39  A    between atoms: _86  and  _89
REMARK   40  A    between atoms: _89  and  _90
REMARK   41  A    between atoms: _93  and  _95
REMARK   42  A    between atoms: _95  and  _96
REMARK   43  A    between atoms: _98  and  _100
REMARK   44  A    between atoms: _100  and  _101
REMARK   45  A    between atoms: _100  and  _103
REMARK   46  A    between atoms: _103  and  _104
REMARK   47  A    between atoms: _106  and  _108
REMARK   48  A    between atoms: _108  and  _109
REMARK   49  A    between atoms: _108  and  _111
REMARK   50  A    between atoms: _111  and  _112
REMARK   51  A    between atoms: _114  and  _116
REMARK   52  A    between atoms: _116  and  _117
REMARK   53  A    between atoms: _116  and  _119
REMARK   54  A    between atoms: _119  and  _120
REMARK   55  A    between atoms: _125  and  _127
REMARK   56  A    between atoms: _127  and  _128
REMARK   57  A    between atoms: _127  and  _130
REMARK   58  A    between atoms: _130  and  _131
REMARK   59  A    between atoms: _137  and  _139
REMARK   60  A    between atoms: _139  and  _140
REMARK   61  A    between atoms: _143  and  _145
REMARK   62  A    between atoms: _145  and  _146
REMARK   63  A    between atoms: _145  and  _148
REMARK   64  A    between atoms: _151  and  _153
REMARK   65  A    between atoms: _153  and  _154
REMARK   66  A    between atoms: _153  and  _156
REMARK   67  A    between atoms: _159  and  _161
REMARK   68  A    between atoms: _161  and  _162
REMARK   69  A    between atoms: _161  and  _164
REMARK   70  A    between atoms: _164  and  _165
REMARK   71  A    between atoms: _170  and  _171
REMARK   72  A    between atoms: _173  and  _175
REMARK   73  A    between atoms: _175  and  _176
REMARK   74  A    between atoms: _175  and  _178
REMARK   75  A    between atoms: _182  and  _183
REMARK   76  A    between atoms: _188  and  _190
REMARK   77  A    between atoms: _190  and  _191
REMARK   78  A    between atoms: _190  and  _193
REMARK   79  A    between atoms: _193  and  _194
REMARK   80  A    between atoms: _199  and  _200
REMARK   81  A    between atoms: _202  and  _204
REMARK   82  A    between atoms: _204  and  _205
REMARK   83  A    between atoms: _204  and  _207
REMARK   84  A    between atoms: _207  and  _208
REMARK   85  A    between atoms: _211  and  _213
REMARK   86  A    between atoms: _213  and  _214
REMARK   87  A    between atoms: _213  and  _216
REMARK   88  A    between atoms: _216  and  _217
REMARK   89  A    between atoms: _217  and  _218
REMARK   90  A    between atoms: _223  and  _225
REMARK   91  A    between atoms: _225  and  _226
REMARK   92  A    between atoms: _228  and  _230
REMARK   93  A    between atoms: _230  and  _231
REMARK   94  A    between atoms: _230  and  _233
REMARK   95  A    between atoms: _233  and  _234
REMARK   96  A    between atoms: _234  and  _235
REMARK   97  A    between atoms: _235  and  _236
REMARK   98  A    between atoms: _236  and  _237
REMARK   99  A    between atoms: _241  and  _243
REMARK  100  A    between atoms: _243  and  _244
REMARK  101  A    between atoms: _243  and  _246
REMARK  102  A    between atoms: _246  and  _247
REMARK  103  A    between atoms: _257  and  _259
REMARK  104  A    between atoms: _259  and  _260
REMARK  105  A    between atoms: _263  and  _265
REMARK  106  A    between atoms: _265  and  _266
REMARK  107  A    between atoms: _265  and  _268
REMARK  108  A    between atoms: _268  and  _269
REMARK  109  A    between atoms: _272  and  _274
REMARK  110  A    between atoms: _274  and  _275
REMARK  111  A    between atoms: _274  and  _277
REMARK  112  A    between atoms: _277  and  _278
REMARK  113  A    between atoms: _281  and  _283
REMARK  114  A    between atoms: _283  and  _284
REMARK  115  A    between atoms: _283  and  _286
REMARK  116  A    between atoms: _286  and  _287
REMARK  117  A    between atoms: _287  and  _288
REMARK  118  A    between atoms: _288  and  _289
REMARK  119  A    between atoms: _289  and  _290
REMARK  120  A    between atoms: _294  and  _296
REMARK  121  A    between atoms: _296  and  _297
REMARK  122  A    between atoms: _296  and  _299
REMARK  123  A    between atoms: _299  and  _300
REMARK  124  A    between atoms: _306  and  _308
REMARK  125  A    between atoms: _308  and  _309
REMARK  126  A    between atoms: _308  and  _311
REMARK  127  A    between atoms: _311  and  _312
REMARK  128  A    between atoms: _318  and  _320
REMARK  129  A    between atoms: _320  and  _321
REMARK  130  A    between atoms: _320  and  _323
REMARK  131  A    between atoms: _323  and  _324
REMARK  132  A    between atoms: _327  and  _329
REMARK  133  A    between atoms: _329  and  _330
REMARK  134  A    between atoms: _329  and  _332
REMARK  135  A    between atoms: _332  and  _333
REMARK  136  A    between atoms: _335  and  _337
REMARK  137  A    between atoms: _337  and  _338
REMARK  138  A    between atoms: _337  and  _340
REMARK  139  A    between atoms: _340  and  _341
REMARK  140  A    between atoms: _351  and  _353
REMARK  141  A    between atoms: _353  and  _354
REMARK  142  A    between atoms: _356  and  _358
REMARK  143  A    between atoms: _358  and  _359
REMARK  144  A    between atoms: _358  and  _361
REMARK  145  A    between atoms: _361  and  _362
REMARK  146  A    between atoms: _365  and  _367
REMARK  147  A    between atoms: _367  and  _368
REMARK  148  A    between atoms: _367  and  _370
REMARK  149  A    between atoms: _370  and  _371
REMARK  150  A    between atoms: _374  and  _376
REMARK  151  A    between atoms: _376  and  _377
REMARK  152  A    between atoms: _379  and  _381
REMARK  153  A    between atoms: _381  and  _382
REMARK  154  A    between atoms: _381  and  _384
REMARK  155  A    between atoms: _384  and  _385
REMARK  156  A    between atoms: _388  and  _390
REMARK  157  A    between atoms: _390  and  _391
REMARK  158  A    between atoms: _390  and  _393
REMARK  159  A    between atoms: _393  and  _394
REMARK  160  A    between atoms: _397  and  _399
REMARK  161  A    between atoms: _399  and  _400
REMARK  162  A    between atoms: _403  and  _405
REMARK  163  A    between atoms: _405  and  _406
REMARK  164  A    between atoms: _405  and  _408
REMARK  165  A    between atoms: _408  and  _409
REMARK  166  A    between atoms: _409  and  _410
REMARK  167  A    between atoms: _410  and  _411
REMARK  168  A    between atoms: _421  and  _422
REMARK  169  A    between atoms: _427  and  _429
REMARK  170  A    between atoms: _429  and  _430
REMARK  171  A    between atoms: _429  and  _432
REMARK  172  A    between atoms: _432  and  _433
REMARK  173  A    between atoms: _436  and  _438
REMARK  174  A    between atoms: _438  and  _439
REMARK  175  A    between atoms: _438  and  _441
REMARK  176  A    between atoms: _441  and  _442
REMARK  177  A    between atoms: _447  and  _448
REMARK  178  A    between atoms: _450  and  _452
REMARK  179  A    between atoms: _452  and  _453
REMARK  180  A    between atoms: _452  and  _455
REMARK  181  A    between atoms: _455  and  _456
REMARK  182  A    between atoms: _459  and  _461
REMARK  183  A    between atoms: _461  and  _462
REMARK  184  A    between atoms: _461  and  _464
REMARK  185  A    between atoms: _467  and  _469
REMARK  186  A    between atoms: _469  and  _470
REMARK  187  A    between atoms: _469  and  _472
REMARK  188  A    between atoms: _472  and  _473
REMARK  189  A    between atoms: _476  and  _478
REMARK  190  A    between atoms: _478  and  _479
REMARK  191  A    between atoms: _478  and  _481
REMARK  192  A    between atoms: _481  and  _482
REMARK  193  A    between atoms: _484  and  _486
REMARK  194  A    between atoms: _486  and  _487
REMARK  195  A    between atoms: _489  and  _491
REMARK  196  A    between atoms: _491  and  _492
REMARK  197  A    between atoms: _491  and  _494
REMARK  198  A    between atoms: _494  and  _495
REMARK  199  A    between atoms: _498  and  _500
REMARK  200  A    between atoms: _500  and  _501
REMARK  201  A    between atoms: _500  and  _503
REMARK  202  A    between atoms: _503  and  _504
REMARK  203  A    between atoms: _507  and  _509
REMARK  204  A    between atoms: _509  and  _510
REMARK  205  A    between atoms: _509  and  _512
REMARK  206  A    between atoms: _512  and  _513
REMARK  207  A    between atoms: _518  and  _520
REMARK  208  A    between atoms: _520  and  _521
REMARK  209  A    between atoms: _520  and  _523
REMARK  210  A    between atoms: _523  and  _524
REMARK  211  A    between atoms: _524  and  _525
REMARK  212  A    between atoms: _525  and  _526
REMARK  213  A    between atoms: _535  and  _537
REMARK  214  A    between atoms: _537  and  _538
REMARK  215  A    between atoms: _537  and  _540
REMARK  216  A    between atoms: _543  and  _545
REMARK  217  A    between atoms: _545  and  _546
REMARK  218  A    between atoms: _548  and  _550
REMARK  219  A    between atoms: _550  and  _551
REMARK  220  A    between atoms: _554  and  _556
REMARK  221  A    between atoms: _556  and  _557
REMARK  222  A    between atoms: _556  and  _559
REMARK                            x       y       z     vdW  Elec       q    Type
REMARK                         _______ _______ _______ _____ _____    ______ ____
ROOT
ATOM      1  O   HOH     1      13.756   2.679  15.967  0.00  0.00    +0.000 OA
ENDROOT
TORSDOF 0
REMARK  Name = ../refined-set-2016/4h3f/4h3f_pocket.pdb
REMARK  222 active torsions:
REMARK  status: ('A' for Active; 'I' for Inactive)
REMARK    1  A    between atoms: _1  and  _3
REMARK    2  A    between atoms: _3  and  _4
REMARK    3  A    between atoms: _3  and  _6
REMARK    4  A    between atoms: _6  and  _7
REMARK    5  A    between atoms: _7  and  _8
REMARK    6  A    between atoms: _8  and  _9
REMARK    7  A    between atoms: _9  and  _10
REMARK    8  A    between atoms: _14  and  _16
REMARK    9  A    between atoms: _16  and  _17
REMARK   10  A    between atoms: _16  and  _19
REMARK   11  A    between atoms: _19  and  _20
REMARK   12  A    between atoms: _22  and  _24
REMARK   13  A    between atoms: _24  and  _25
REMARK   14  A    between atoms: _27  and  _29
REMARK   15  A    between atoms: _29  and  _30
REMARK   16  A    between atoms: _29  and  _32
REMARK   17  A    between atoms: _32  and  _33
REMARK   18  A    between atoms: _33  and  _34
REMARK   19  A    between atoms: _39  and  _41
REMARK   20  A    between atoms: _41  and  _42
REMARK   21  A    between atoms: _44  and  _46
REMARK   22  A    between atoms: _46  and  _47
REMARK   23  A    between atoms: _46  and  _49
REMARK   24  A    between atoms: _49  and  _50
REMARK   25  A    between atoms: _55  and  _56
REMARK   26  A    between atoms: _58  and  _60
REMARK   27  A    between atoms: _60  and  _61
REMARK   28  A    between atoms: _60  and  _63
REMARK   29  A    between atoms: _63  and  _64
REMARK   30  A    between atoms: _67  and  _69
REMARK   31  A    between atoms: _69  and  _70
REMARK   32  A    between atoms: _69  and  _72
REMARK   33  A    between atoms: _75  and  _77
REMARK   34  A    between atoms: _77  and  _78
REMARK   35  A    between atoms: _77  and  _80
REMARK   36  A    between atoms: _80  and  _81
REMARK   37  A    between atoms: _84  and  _86
REMARK   38  A    between atoms: _86  and  _87
REMARK   39  A    between atoms: _86  and  _89
REMARK   40  A    between atoms: _89  and  _90
REMARK   41  A    between atoms: _93  and  _95
REMARK   42  A    between atoms: _95  and  _96
REMARK   43  A    between atoms: _98  and  _100
REMARK   44  A    between atoms: _100  and  _101
REMARK   45  A    between atoms: _100  and  _103
REMARK   46  A    between atoms: _103  and  _104
REMARK   47  A    between atoms: _106  and  _108
REMARK   48  A    between atoms: _108  and  _109
REMARK   49  A    between atoms: _108  and  _111
REMARK   50  A    between atoms: _111  and  _112
REMARK   51  A    between atoms: _114  and  _116
REMARK   52  A    between atoms: _116  and  _117
REMARK   53  A    between atoms: _116  and  _119
REMARK   54  A    between atoms: _119  and  _120
REMARK   55  A    between atoms: _125  and  _127
REMARK   56  A    between atoms: _127  and  _128
REMARK   57  A    between atoms: _127  and  _130
REMARK   58  A    between atoms: _130  and  _131
REMARK   59  A    between atoms: _137  and  _139
REMARK   60  A    between atoms: _139  and  _140
REMARK   61  A    between atoms: _143  and  _145
REMARK   62  A    between atoms: _145  and  _146
REMARK   63  A    between atoms: _145  and  _148
REMARK   64  A    between atoms: _151  and  _153
REMARK   65  A    between atoms: _153  and  _154
REMARK   66  A    between atoms: _153  and  _156
REMARK   67  A    between atoms: _159  and  _161
REMARK   68  A    between atoms: _161  and  _162
REMARK   69  A    between atoms: _161  and  _164
REMARK   70  A    between atoms: _164  and  _165
REMARK   71  A    between atoms: _170  and  _171
REMARK   72  A    between atoms: _173  and  _175
REMARK   73  A    between atoms: _175  and  _176
REMARK   74  A    between atoms: _175  and  _178
REMARK   75  A    between atoms: _182  and  _183
REMARK   76  A    between atoms: _188  and  _190
REMARK   77  A    between atoms: _190  and  _191
REMARK   78  A    between atoms: _190  and  _193
REMARK   79  A    between atoms: _193  and  _194
REMARK   80  A    between atoms: _199  and  _200
REMARK   81  A    between atoms: _202  and  _204
REMARK   82  A    between atoms: _204  and  _205
REMARK   83  A    between atoms: _204  and  _207
REMARK   84  A    between atoms: _207  and  _208
REMARK   85  A    between atoms: _211  and  _213
REMARK   86  A    between atoms: _213  and  _214
REMARK   87  A    between atoms: _213  and  _216
REMARK   88  A    between atoms: _216  and  _217
REMARK   89  A    between atoms: _217  and  _218
REMARK   90  A    between atoms: _223  and  _225
REMARK   91  A    between atoms: _225  and  _226
REMARK   92  A    between atoms: _228  and  _230
REMARK   93  A    between atoms: _230  and  _231
REMARK   94  A    between atoms: _230  and  _233
REMARK   95  A    between atoms: _233  and  _234
REMARK   96  A    between atoms: _234  and  _235
REMARK   97  A    between atoms: _235  and  _236
REMARK   98  A    between atoms: _236  and  _237
REMARK   99  A    between atoms: _241  and  _243
REMARK  100  A    between atoms: _243  and  _244
REMARK  101  A    between atoms: _243  and  _246
REMARK  102  A    between atoms: _246  and  _247
REMARK  103  A    between atoms: _257  and  _259
REMARK  104  A    between atoms: _259  and  _260
REMARK  105  A    between atoms: _263  and  _265
REMARK  106  A    between atoms: _265  and  _266
REMARK  107  A    between atoms: _265  and  _268
REMARK  108  A    between atoms: _268  and  _269
REMARK  109  A    between atoms: _272  and  _274
REMARK  110  A    between atoms: _274  and  _275
REMARK  111  A    between atoms: _274  and  _277
REMARK  112  A    between atoms: _277  and  _278
REMARK  113  A    between atoms: _281  and  _283
REMARK  114  A    between atoms: _283  and  _284
REMARK  115  A    between atoms: _283  and  _286
REMARK  116  A    between atoms: _286  and  _287
REMARK  117  A    between atoms: _287  and  _288
REMARK  118  A    between atoms: _288  and  _289
REMARK  119  A    between atoms: _289  and  _290
REMARK  120  A    between atoms: _294  and  _296
REMARK  121  A    between atoms: _296  and  _297
REMARK  122  A    between atoms: _296  and  _299
REMARK  123  A    between atoms: _299  and  _300
REMARK  124  A    between atoms: _306  and  _308
REMARK  125  A    between atoms: _308  and  _309
REMARK  126  A    between atoms: _308  and  _311
REMARK  127  A    between atoms: _311  and  _312
REMARK  128  A    between atoms: _318  and  _320
REMARK  129  A    between atoms: _320  and  _321
REMARK  130  A    between atoms: _320  and  _323
REMARK  131  A    between atoms: _323  and  _324
REMARK  132  A    between atoms: _327  and  _329
REMARK  133  A    between atoms: _329  and  _330
REMARK  134  A    between atoms: _329  and  _332
REMARK  135  A    between atoms: _332  and  _333
REMARK  136  A    between atoms: _335  and  _337
REMARK  137  A    between atoms: _337  and  _338
REMARK  138  A    between atoms: _337  and  _340
REMARK  139  A    between atoms: _340  and  _341
REMARK  140  A    between atoms: _351  and  _353
REMARK  141  A    between atoms: _353  and  _354
REMARK  142  A    between atoms: _356  and  _358
REMARK  143  A    between atoms: _358  and  _359
REMARK  144  A    between atoms: _358  and  _361
REMARK  145  A    between atoms: _361  and  _362
REMARK  146  A    between atoms: _365  and  _367
REMARK  147  A    between atoms: _367  and  _368
REMARK  148  A    between atoms: _367  and  _370
REMARK  149  A    between atoms: _370  and  _371
REMARK  150  A    between atoms: _374  and  _376
REMARK  151  A    between atoms: _376  and  _377
REMARK  152  A    between atoms: _379  and  _381
REMARK  153  A    between atoms: _381  and  _382
REMARK  154  A    between atoms: _381  and  _384
REMARK  155  A    between atoms: _384  and  _385
REMARK  156  A    between atoms: _388  and  _390
REMARK  157  A    between atoms: _390  and  _391
REMARK  158  A    between atoms: _390  and  _393
REMARK  159  A    between atoms: _393  and  _394
REMARK  160  A    between atoms: _397  and  _399
REMARK  161  A    between atoms: _399  and  _400
REMARK  162  A    between atoms: _403  and  _405
REMARK  163  A    between atoms: _405  and  _406
REMARK  164  A    between atoms: _405  and  _408
REMARK  165  A    between atoms: _408  and  _409
REMARK  166  A    between atoms: _409  and  _410
REMARK  167  A    between atoms: _410  and  _411
REMARK  168  A    between atoms: _421  and  _422
REMARK  169  A    between atoms: _427  and  _429
REMARK  170  A    between atoms: _429  and  _430
REMARK  171  A    between atoms: _429  and  _432
REMARK  172  A    between atoms: _432  and  _433
REMARK  173  A    between atoms: _436  and  _438
REMARK  174  A    between atoms: _438  and  _439
REMARK  175  A    between atoms: _438  and  _441
REMARK  176  A    between atoms: _441  and  _442
REMARK  177  A    between atoms: _447  and  _448
REMARK  178  A    between atoms: _450  and  _452
REMARK  179  A    between atoms: _452  and  _453
REMARK  180  A    between atoms: _452  and  _455
REMARK  181  A    between atoms: _455  and  _456
REMARK  182  A    between atoms: _459  and  _461
REMARK  183  A    between atoms: _461  and  _462
REMARK  184  A    between atoms: _461  and  _464
REMARK  185  A    between atoms: _467  and  _469
REMARK  186  A    between atoms: _469  and  _470
REMARK  187  A    between atoms: _469  and  _472
REMARK  188  A    between atoms: _472  and  _473
REMARK  189  A    between atoms: _476  and  _478
REMARK  190  A    between atoms: _478  and  _479
REMARK  191  A    between atoms: _478  and  _481
REMARK  192  A    between atoms: _481  and  _482
REMARK  193  A    between atoms: _484  and  _486
REMARK  194  A    between atoms: _486  and  _487
REMARK  195  A    between atoms: _489  and  _491
REMARK  196  A    between atoms: _491  and  _492
REMARK  197  A    between atoms: _491  and  _494
REMARK  198  A    between atoms: _494  and  _495
REMARK  199  A    between atoms: _498  and  _500
REMARK  200  A    between atoms: _500  and  _501
REMARK  201  A    between atoms: _500  and  _503
REMARK  202  A    between atoms: _503  and  _504
REMARK  203  A    between atoms: _507  and  _509
REMARK  204  A    between atoms: _509  and  _510
REMARK  205  A    between atoms: _509  and  _512
REMARK  206  A    between atoms: _512  and  _513
REMARK  207  A    between atoms: _518  and  _520
REMARK  208  A    between atoms: _520  and  _521
REMARK  209  A    between atoms: _520  and  _523
REMARK  210  A    between atoms: _523  and  _524
REMARK  211  A    between atoms: _524  and  _525
REMARK  212  A    between atoms: _525  and  _526
REMARK  213  A    between atoms: _535  and  _537
REMARK  214  A    between atoms: _537  and  _538
REMARK  215  A    between atoms: _537  and  _540
REMARK  216  A    between atoms: _543  and  _545
REMARK  217  A    between atoms: _545  and  _546
REMARK  218  A    between atoms: _548  and  _550
REMARK  219  A    between atoms: _550  and  _551
REMARK  220  A    between atoms: _554  and  _556
REMARK  221  A    between atoms: _556  and  _557
REMARK  222  A    between atoms: _556  and  _559
REMARK                            x       y       z     vdW  Elec       q    Type
REMARK                         _______ _______ _______ _____ _____    ______ ____
ROOT
ATOM      1  O   HOH     1      12.525   1.213  20.017  0.00  0.00    +0.000 OA
ENDROOT
TORSDOF 0
REMARK  Name = ../refined-set-2016/4h3f/4h3f_pocket.pdb
REMARK  222 active torsions:
REMARK  status: ('A' for Active; 'I' for Inactive)
REMARK    1  A    between atoms: _1  and  _3
REMARK    2  A    between atoms: _3  and  _4
REMARK    3  A    between atoms: _3  and  _6
REMARK    4  A    between atoms: _6  and  _7
REMARK    5  A    between atoms: _7  and  _8
REMARK    6  A    between atoms: _8  and  _9
REMARK    7  A    between atoms: _9  and  _10
REMARK    8  A    between atoms: _14  and  _16
REMARK    9  A    between atoms: _16  and  _17
REMARK   10  A    between atoms: _16  and  _19
REMARK   11  A    between atoms: _19  and  _20
REMARK   12  A    between atoms: _22  and  _24
REMARK   13  A    between atoms: _24  and  _25
REMARK   14  A    between atoms: _27  and  _29
REMARK   15  A    between atoms: _29  and  _30
REMARK   16  A    between atoms: _29  and  _32
REMARK   17  A    between atoms: _32  and  _33
REMARK   18  A    between atoms: _33  and  _34
REMARK   19  A    between atoms: _39  and  _41
REMARK   20  A    between atoms: _41  and  _42
REMARK   21  A    between atoms: _44  and  _46
REMARK   22  A    between atoms: _46  and  _47
REMARK   23  A    between atoms: _46  and  _49
REMARK   24  A    between atoms: _49  and  _50
REMARK   25  A    between atoms: _55  and  _56
REMARK   26  A    between atoms: _58  and  _60
REMARK   27  A    between atoms: _60  and  _61
REMARK   28  A    between atoms: _60  and  _63
REMARK   29  A    between atoms: _63  and  _64
REMARK   30  A    between atoms: _67  and  _69
REMARK   31  A    between atoms: _69  and  _70
REMARK   32  A    between atoms: _69  and  _72
REMARK   33  A    between atoms: _75  and  _77
REMARK   34  A    between atoms: _77  and  _78
REMARK   35  A    between atoms: _77  and  _80
REMARK   36  A    between atoms: _80  and  _81
REMARK   37  A    between atoms: _84  and  _86
REMARK   38  A    between atoms: _86  and  _87
REMARK   39  A    between atoms: _86  and  _89
REMARK   40  A    between atoms: _89  and  _90
REMARK   41  A    between atoms: _93  and  _95
REMARK   42  A    between atoms: _95  and  _96
REMARK   43  A    between atoms: _98  and  _100
REMARK   44  A    between atoms: _100  and  _101
REMARK   45  A    between atoms: _100  and  _103
REMARK   46  A    between atoms: _103  and  _104
REMARK   47  A    between atoms: _106  and  _108
REMARK   48  A    between atoms: _108  and  _109
REMARK   49  A    between atoms: _108  and  _111
REMARK   50  A    between atoms: _111  and  _112
REMARK   51  A    between atoms: _114  and  _116
REMARK   52  A    between atoms: _116  and  _117
REMARK   53  A    between atoms: _116  and  _119
REMARK   54  A    between atoms: _119  and  _120
REMARK   55  A    between atoms: _125  and  _127
REMARK   56  A    between atoms: _127  and  _128
REMARK   57  A    between atoms: _127  and  _130
REMARK   58  A    between atoms: _130  and  _131
REMARK   59  A    between atoms: _137  and  _139
REMARK   60  A    between atoms: _139  and  _140
REMARK   61  A    between atoms: _143  and  _145
REMARK   62  A    between atoms: _145  and  _146
REMARK   63  A    between atoms: _145  and  _148
REMARK   64  A    between atoms: _151  and  _153
REMARK   65  A    between atoms: _153  and  _154
REMARK   66  A    between atoms: _153  and  _156
REMARK   67  A    between atoms: _159  and  _161
REMARK   68  A    between atoms: _161  and  _162
REMARK   69  A    between atoms: _161  and  _164
REMARK   70  A    between atoms: _164  and  _165
REMARK   71  A    between atoms: _170  and  _171
REMARK   72  A    between atoms: _173  and  _175
REMARK   73  A    between atoms: _175  and  _176
REMARK   74  A    between atoms: _175  and  _178
REMARK   75  A    between atoms: _182  and  _183
REMARK   76  A    between atoms: _188  and  _190
REMARK   77  A    between atoms: _190  and  _191
REMARK   78  A    between atoms: _190  and  _193
REMARK   79  A    between atoms: _193  and  _194
REMARK   80  A    between atoms: _199  and  _200
REMARK   81  A    between atoms: _202  and  _204
REMARK   82  A    between atoms: _204  and  _205
REMARK   83  A    between atoms: _204  and  _207
REMARK   84  A    between atoms: _207  and  _208
REMARK   85  A    between atoms: _211  and  _213
REMARK   86  A    between atoms: _213  and  _214
REMARK   87  A    between atoms: _213  and  _216
REMARK   88  A    between atoms: _216  and  _217
REMARK   89  A    between atoms: _217  and  _218
REMARK   90  A    between atoms: _223  and  _225
REMARK   91  A    between atoms: _225  and  _226
REMARK   92  A    between atoms: _228  and  _230
REMARK   93  A    between atoms: _230  and  _231
REMARK   94  A    between atoms: _230  and  _233
REMARK   95  A    between atoms: _233  and  _234
REMARK   96  A    between atoms: _234  and  _235
REMARK   97  A    between atoms: _235  and  _236
REMARK   98  A    between atoms: _236  and  _237
REMARK   99  A    between atoms: _241  and  _243
REMARK  100  A    between atoms: _243  and  _244
REMARK  101  A    between atoms: _243  and  _246
REMARK  102  A    between atoms: _246  and  _247
REMARK  103  A    between atoms: _257  and  _259
REMARK  104  A    between atoms: _259  and  _260
REMARK  105  A    between atoms: _263  and  _265
REMARK  106  A    between atoms: _265  and  _266
REMARK  107  A    between atoms: _265  and  _268
REMARK  108  A    between atoms: _268  and  _269
REMARK  109  A    between atoms: _272  and  _274
REMARK  110  A    between atoms: _274  and  _275
REMARK  111  A    between atoms: _274  and  _277
REMARK  112  A    between atoms: _277  and  _278
REMARK  113  A    between atoms: _281  and  _283
REMARK  114  A    between atoms: _283  and  _284
REMARK  115  A    between atoms: _283  and  _286
REMARK  116  A    between atoms: _286  and  _287
REMARK  117  A    between atoms: _287  and  _288
REMARK  118  A    between atoms: _288  and  _289
REMARK  119  A    between atoms: _289  and  _290
REMARK  120  A    between atoms: _294  and  _296
REMARK  121  A    between atoms: _296  and  _297
REMARK  122  A    between atoms: _296  and  _299
REMARK  123  A    between atoms: _299  and  _300
REMARK  124  A    between atoms: _306  and  _308
REMARK  125  A    between atoms: _308  and  _309
REMARK  126  A    between atoms: _308  and  _311
REMARK  127  A    between atoms: _311  and  _312
REMARK  128  A    between atoms: _318  and  _320
REMARK  129  A    between atoms: _320  and  _321
REMARK  130  A    between atoms: _320  and  _323
REMARK  131  A    between atoms: _323  and  _324
REMARK  132  A    between atoms: _327  and  _329
REMARK  133  A    between atoms: _329  and  _330
REMARK  134  A    between atoms: _329  and  _332
REMARK  135  A    between atoms: _332  and  _333
REMARK  136  A    between atoms: _335  and  _337
REMARK  137  A    between atoms: _337  and  _338
REMARK  138  A    between atoms: _337  and  _340
REMARK  139  A    between atoms: _340  and  _341
REMARK  140  A    between atoms: _351  and  _353
REMARK  141  A    between atoms: _353  and  _354
REMARK  142  A    between atoms: _356  and  _358
REMARK  143  A    between atoms: _358  and  _359
REMARK  144  A    between atoms: _358  and  _361
REMARK  145  A    between atoms: _361  and  _362
REMARK  146  A    between atoms: _365  and  _367
REMARK  147  A    between atoms: _367  and  _368
REMARK  148  A    between atoms: _367  and  _370
REMARK  149  A    between atoms: _370  and  _371
REMARK  150  A    between atoms: _374  and  _376
REMARK  151  A    between atoms: _376  and  _377
REMARK  152  A    between atoms: _379  and  _381
REMARK  153  A    between atoms: _381  and  _382
REMARK  154  A    between atoms: _381  and  _384
REMARK  155  A    between atoms: _384  and  _385
REMARK  156  A    between atoms: _388  and  _390
REMARK  157  A    between atoms: _390  and  _391
REMARK  158  A    between atoms: _390  and  _393
REMARK  159  A    between atoms: _393  and  _394
REMARK  160  A    between atoms: _397  and  _399
REMARK  161  A    between atoms: _399  and  _400
REMARK  162  A    between atoms: _403  and  _405
REMARK  163  A    between atoms: _405  and  _406
REMARK  164  A    between atoms: _405  and  _408
REMARK  165  A    between atoms: _408  and  _409
REMARK  166  A    between atoms: _409  and  _410
REMARK  167  A    between atoms: _410  and  _411
REMARK  168  A    between atoms: _421  and  _422
REMARK  169  A    between atoms: _427  and  _429
REMARK  170  A    between atoms: _429  and  _430
REMARK  171  A    between atoms: _429  and  _432
REMARK  172  A    between atoms: _432  and  _433
REMARK  173  A    between atoms: _436  and  _438
REMARK  174  A    between atoms: _438  and  _439
REMARK  175  A    between atoms: _438  and  _441
REMARK  176  A    between atoms: _441  and  _442
REMARK  177  A    between atoms: _447  and  _448
REMARK  178  A    between atoms: _450  and  _452
REMARK  179  A    between atoms: _452  and  _453
REMARK  180  A    between atoms: _452  and  _455
REMARK  181  A    between atoms: _455  and  _456
REMARK  182  A    between atoms: _459  and  _461
REMARK  183  A    between atoms: _461  and  _462
REMARK  184  A    between atoms: _461  and  _464
REMARK  185  A    between atoms: _467  and  _469
REMARK  186  A    between atoms: _469  and  _470
REMARK  187  A    between atoms: _469  and  _472
REMARK  188  A    between atoms: _472  and  _473
REMARK  189  A    between atoms: _476  and  _478
REMARK  190  A    between atoms: _478  and  _479
REMARK  191  A    between atoms: _478  and  _481
REMARK  192  A    between atoms: _481  and  _482
REMARK  193  A    between atoms: _484  and  _486
REMARK  194  A    between atoms: _486  and  _487
REMARK  195  A    between atoms: _489  and  _491
REMARK  196  A    between atoms: _491  and  _492
REMARK  197  A    between atoms: _491  and  _494
REMARK  198  A    between atoms: _494  and  _495
REMARK  199  A    between atoms: _498  and  _500
REMARK  200  A    between atoms: _500  and  _501
REMARK  201  A    between atoms: _500  and  _503
REMARK  202  A    between atoms: _503  and  _504
REMARK  203  A    between atoms: _507  and  _509
REMARK  204  A    between atoms: _509  and  _510
REMARK  205  A    between atoms: _509  and  _512
REMARK  206  A    between atoms: _512  and  _513
REMARK  207  A    between atoms: _518  and  _520
REMARK  208  A    between atoms: _520  and  _521
REMARK  209  A    between atoms: _520  and  _523
REMARK  210  A    between atoms: _523  and  _524
REMARK  211  A    between atoms: _524  and  _525
REMARK  212  A    between atoms: _525  and  _526
REMARK  213  A    between atoms: _535  and  _537
REMARK  214  A    between atoms: _537  and  _538
REMARK  215  A    between atoms: _537  and  _540
REMARK  216  A    between atoms: _543  and  _545
REMARK  217  A    between atoms: _545  and  _546
REMARK  218  A    between atoms: _548  and  _550
REMARK  219  A    between atoms: _550  and  _551
REMARK  220  A    between atoms: _554  and  _556
REMARK  221  A    between atoms: _556  and  _557
REMARK  222  A    between atoms: _556  and  _559
REMARK                            x       y       z     vdW  Elec       q    Type
REMARK                         _______ _______ _______ _____ _____    ______ ____
ROOT
ATOM      1  O   HOH     1      30.870  11.063  16.650  0.00  0.00    +0.000 OA
ENDROOT
TORSDOF 0
REMARK  Name = ../refined-set-2016/4h3f/4h3f_pocket.pdb
REMARK  222 active torsions:
REMARK  status: ('A' for Active; 'I' for Inactive)
REMARK    1  A    between atoms: _1  and  _3
REMARK    2  A    between atoms: _3  and  _4
REMARK    3  A    between atoms: _3  and  _6
REMARK    4  A    between atoms: _6  and  _7
REMARK    5  A    between atoms: _7  and  _8
REMARK    6  A    between atoms: _8  and  _9
REMARK    7  A    between atoms: _9  and  _10
REMARK    8  A    between atoms: _14  and  _16
REMARK    9  A    between atoms: _16  and  _17
REMARK   10  A    between atoms: _16  and  _19
REMARK   11  A    between atoms: _19  and  _20
REMARK   12  A    between atoms: _22  and  _24
REMARK   13  A    between atoms: _24  and  _25
REMARK   14  A    between atoms: _27  and  _29
REMARK   15  A    between atoms: _29  and  _30
REMARK   16  A    between atoms: _29  and  _32
REMARK   17  A    between atoms: _32  and  _33
REMARK   18  A    between atoms: _33  and  _34
REMARK   19  A    between atoms: _39  and  _41
REMARK   20  A    between atoms: _41  and  _42
REMARK   21  A    between atoms: _44  and  _46
REMARK   22  A    between atoms: _46  and  _47
REMARK   23  A    between atoms: _46  and  _49
REMARK   24  A    between atoms: _49  and  _50
REMARK   25  A    between atoms: _55  and  _56
REMARK   26  A    between atoms: _58  and  _60
REMARK   27  A    between atoms: _60  and  _61
REMARK   28  A    between atoms: _60  and  _63
REMARK   29  A    between atoms: _63  and  _64
REMARK   30  A    between atoms: _67  and  _69
REMARK   31  A    between atoms: _69  and  _70
REMARK   32  A    between atoms: _69  and  _72
REMARK   33  A    between atoms: _75  and  _77
REMARK   34  A    between atoms: _77  and  _78
REMARK   35  A    between atoms: _77  and  _80
REMARK   36  A    between atoms: _80  and  _81
REMARK   37  A    between atoms: _84  and  _86
REMARK   38  A    between atoms: _86  and  _87
REMARK   39  A    between atoms: _86  and  _89
REMARK   40  A    between atoms: _89  and  _90
REMARK   41  A    between atoms: _93  and  _95
REMARK   42  A    between atoms: _95  and  _96
REMARK   43  A    between atoms: _98  and  _100
REMARK   44  A    between atoms: _100  and  _101
REMARK   45  A    between atoms: _100  and  _103
REMARK   46  A    between atoms: _103  and  _104
REMARK   47  A    between atoms: _106  and  _108
REMARK   48  A    between atoms: _108  and  _109
REMARK   49  A    between atoms: _108  and  _111
REMARK   50  A    between atoms: _111  and  _112
REMARK   51  A    between atoms: _114  and  _116
REMARK   52  A    between atoms: _116  and  _117
REMARK   53  A    between atoms: _116  and  _119
REMARK   54  A    between atoms: _119  and  _120
REMARK   55  A    between atoms: _125  and  _127
REMARK   56  A    between atoms: _127  and  _128
REMARK   57  A    between atoms: _127  and  _130
REMARK   58  A    between atoms: _130  and  _131
REMARK   59  A    between atoms: _137  and  _139
REMARK   60  A    between atoms: _139  and  _140
REMARK   61  A    between atoms: _143  and  _145
REMARK   62  A    between atoms: _145  and  _146
REMARK   63  A    between atoms: _145  and  _148
REMARK   64  A    between atoms: _151  and  _153
REMARK   65  A    between atoms: _153  and  _154
REMARK   66  A    between atoms: _153  and  _156
REMARK   67  A    between atoms: _159  and  _161
REMARK   68  A    between atoms: _161  and  _162
REMARK   69  A    between atoms: _161  and  _164
REMARK   70  A    between atoms: _164  and  _165
REMARK   71  A    between atoms: _170  and  _171
REMARK   72  A    between atoms: _173  and  _175
REMARK   73  A    between atoms: _175  and  _176
REMARK   74  A    between atoms: _175  and  _178
REMARK   75  A    between atoms: _182  and  _183
REMARK   76  A    between atoms: _188  and  _190
REMARK   77  A    between atoms: _190  and  _191
REMARK   78  A    between atoms: _190  and  _193
REMARK   79  A    between atoms: _193  and  _194
REMARK   80  A    between atoms: _199  and  _200
REMARK   81  A    between atoms: _202  and  _204
REMARK   82  A    between atoms: _204  and  _205
REMARK   83  A    between atoms: _204  and  _207
REMARK   84  A    between atoms: _207  and  _208
REMARK   85  A    between atoms: _211  and  _213
REMARK   86  A    between atoms: _213  and  _214
REMARK   87  A    between atoms: _213  and  _216
REMARK   88  A    between atoms: _216  and  _217
REMARK   89  A    between atoms: _217  and  _218
REMARK   90  A    between atoms: _223  and  _225
REMARK   91  A    between atoms: _225  and  _226
REMARK   92  A    between atoms: _228  and  _230
REMARK   93  A    between atoms: _230  and  _231
REMARK   94  A    between atoms: _230  and  _233
REMARK   95  A    between atoms: _233  and  _234
REMARK   96  A    between atoms: _234  and  _235
REMARK   97  A    between atoms: _235  and  _236
REMARK   98  A    between atoms: _236  and  _237
REMARK   99  A    between atoms: _241  and  _243
REMARK  100  A    between atoms: _243  and  _244
REMARK  101  A    between atoms: _243  and  _246
REMARK  102  A    between atoms: _246  and  _247
REMARK  103  A    between atoms: _257  and  _259
REMARK  104  A    between atoms: _259  and  _260
REMARK  105  A    between atoms: _263  and  _265
REMARK  106  A    between atoms: _265  and  _266
REMARK  107  A    between atoms: _265  and  _268
REMARK  108  A    between atoms: _268  and  _269
REMARK  109  A    between atoms: _272  and  _274
REMARK  110  A    between atoms: _274  and  _275
REMARK  111  A    between atoms: _274  and  _277
REMARK  112  A    between atoms: _277  and  _278
REMARK  113  A    between atoms: _281  and  _283
REMARK  114  A    between atoms: _283  and  _284
REMARK  115  A    between atoms: _283  and  _286
REMARK  116  A    between atoms: _286  and  _287
REMARK  117  A    between atoms: _287  and  _288
REMARK  118  A    between atoms: _288  and  _289
REMARK  119  A    between atoms: _289  and  _290
REMARK  120  A    between atoms: _294  and  _296
REMARK  121  A    between atoms: _296  and  _297
REMARK  122  A    between atoms: _296  and  _299
REMARK  123  A    between atoms: _299  and  _300
REMARK  124  A    between atoms: _306  and  _308
REMARK  125  A    between atoms: _308  and  _309
REMARK  126  A    between atoms: _308  and  _311
REMARK  127  A    between atoms: _311  and  _312
REMARK  128  A    between atoms: _318  and  _320
REMARK  129  A    between atoms: _320  and  _321
REMARK  130  A    between atoms: _320  and  _323
REMARK  131  A    between atoms: _323  and  _324
REMARK  132  A    between atoms: _327  and  _329
REMARK  133  A    between atoms: _329  and  _330
REMARK  134  A    between atoms: _329  and  _332
REMARK  135  A    between atoms: _332  and  _333
REMARK  136  A    between atoms: _335  and  _337
REMARK  137  A    between atoms: _337  and  _338
REMARK  138  A    between atoms: _337  and  _340
REMARK  139  A    between atoms: _340  and  _341
REMARK  140  A    between atoms: _351  and  _353
REMARK  141  A    between atoms: _353  and  _354
REMARK  142  A    between atoms: _356  and  _358
REMARK  143  A    between atoms: _358  and  _359
REMARK  144  A    between atoms: _358  and  _361
REMARK  145  A    between atoms: _361  and  _362
REMARK  146  A    between atoms: _365  and  _367
REMARK  147  A    between atoms: _367  and  _368
REMARK  148  A    between atoms: _367  and  _370
REMARK  149  A    between atoms: _370  and  _371
REMARK  150  A    between atoms: _374  and  _376
REMARK  151  A    between atoms: _376  and  _377
REMARK  152  A    between atoms: _379  and  _381
REMARK  153  A    between atoms: _381  and  _382
REMARK  154  A    between atoms: _381  and  _384
REMARK  155  A    between atoms: _384  and  _385
REMARK  156  A    between atoms: _388  and  _390
REMARK  157  A    between atoms: _390  and  _391
REMARK  158  A    between atoms: _390  and  _393
REMARK  159  A    between atoms: _393  and  _394
REMARK  160  A    between atoms: _397  and  _399
REMARK  161  A    between atoms: _399  and  _400
REMARK  162  A    between atoms: _403  and  _405
REMARK  163  A    between atoms: _405  and  _406
REMARK  164  A    between atoms: _405  and  _408
REMARK  165  A    between atoms: _408  and  _409
REMARK  166  A    between atoms: _409  and  _410
REMARK  167  A    between atoms: _410  and  _411
REMARK  168  A    between atoms: _421  and  _422
REMARK  169  A    between atoms: _427  and  _429
REMARK  170  A    between atoms: _429  and  _430
REMARK  171  A    between atoms: _429  and  _432
REMARK  172  A    between atoms: _432  and  _433
REMARK  173  A    between atoms: _436  and  _438
REMARK  174  A    between atoms: _438  and  _439
REMARK  175  A    between atoms: _438  and  _441
REMARK  176  A    between atoms: _441  and  _442
REMARK  177  A    between atoms: _447  and  _448
REMARK  178  A    between atoms: _450  and  _452
REMARK  179  A    between atoms: _452  and  _453
REMARK  180  A    between atoms: _452  and  _455
REMARK  181  A    between atoms: _455  and  _456
REMARK  182  A    between atoms: _459  and  _461
REMARK  183  A    between atoms: _461  and  _462
REMARK  184  A    between atoms: _461  and  _464
REMARK  185  A    between atoms: _467  and  _469
REMARK  186  A    between atoms: _469  and  _470
REMARK  187  A    between atoms: _469  and  _472
REMARK  188  A    between atoms: _472  and  _473
REMARK  189  A    between atoms: _476  and  _478
REMARK  190  A    between atoms: _478  and  _479
REMARK  191  A    between atoms: _478  and  _481
REMARK  192  A    between atoms: _481  and  _482
REMARK  193  A    between atoms: _484  and  _486
REMARK  194  A    between atoms: _486  and  _487
REMARK  195  A    between atoms: _489  and  _491
REMARK  196  A    between atoms: _491  and  _492
REMARK  197  A    between atoms: _491  and  _494
REMARK  198  A    between atoms: _494  and  _495
REMARK  199  A    between atoms: _498  and  _500
REMARK  200  A    between atoms: _500  and  _501
REMARK  201  A    between atoms: _500  and  _503
REMARK  202  A    between atoms: _503  and  _504
REMARK  203  A    between atoms: _507  and  _509
REMARK  204  A    between atoms: _509  and  _510
REMARK  205  A    between atoms: _509  and  _512
REMARK  206  A    between atoms: _512  and  _513
REMARK  207  A    between atoms: _518  and  _520
REMARK  208  A    between atoms: _520  and  _521
REMARK  209  A    between atoms: _520  and  _523
REMARK  210  A    between atoms: _523  and  _524
REMARK  211  A    between atoms: _524  and  _525
REMARK  212  A    between atoms: _525  and  _526
REMARK  213  A    between atoms: _535  and  _537
REMARK  214  A    between atoms: _537  and  _538
REMARK  215  A    between atoms: _537  and  _540
REMARK  216  A    between atoms: _543  and  _545
REMARK  217  A    between atoms: _545  and  _546
REMARK  218  A    between atoms: _548  and  _550
REMARK  219  A    between atoms: _550  and  _551
REMARK  220  A    between atoms: _554  and  _556
REMARK  221  A    between atoms: _556  and  _557
REMARK  222  A    between atoms: _556  and  _559
REMARK                            x       y       z     vdW  Elec       q    Type
REMARK                         _______ _______ _______ _____ _____    ______ ____
ROOT
ATOM      1  O   HOH     1      29.183   4.839  22.963  0.00  0.00    +0.000 OA
ENDROOT
TORSDOF 0
REMARK  Name = ../refined-set-2016/4h3f/4h3f_pocket.pdb
REMARK  222 active torsions:
REMARK  status: ('A' for Active; 'I' for Inactive)
REMARK    1  A    between atoms: _1  and  _3
REMARK    2  A    between atoms: _3  and  _4
REMARK    3  A    between atoms: _3  and  _6
REMARK    4  A    between atoms: _6  and  _7
REMARK    5  A    between atoms: _7  and  _8
REMARK    6  A    between atoms: _8  and  _9
REMARK    7  A    between atoms: _9  and  _10
REMARK    8  A    between atoms: _14  and  _16
REMARK    9  A    between atoms: _16  and  _17
REMARK   10  A    between atoms: _16  and  _19
REMARK   11  A    between atoms: _19  and  _20
REMARK   12  A    between atoms: _22  and  _24
REMARK   13  A    between atoms: _24  and  _25
REMARK   14  A    between atoms: _27  and  _29
REMARK   15  A    between atoms: _29  and  _30
REMARK   16  A    between atoms: _29  and  _32
REMARK   17  A    between atoms: _32  and  _33
REMARK   18  A    between atoms: _33  and  _34
REMARK   19  A    between atoms: _39  and  _41
REMARK   20  A    between atoms: _41  and  _42
REMARK   21  A    between atoms: _44  and  _46
REMARK   22  A    between atoms: _46  and  _47
REMARK   23  A    between atoms: _46  and  _49
REMARK   24  A    between atoms: _49  and  _50
REMARK   25  A    between atoms: _55  and  _56
REMARK   26  A    between atoms: _58  and  _60
REMARK   27  A    between atoms: _60  and  _61
REMARK   28  A    between atoms: _60  and  _63
REMARK   29  A    between atoms: _63  and  _64
REMARK   30  A    between atoms: _67  and  _69
REMARK   31  A    between atoms: _69  and  _70
REMARK   32  A    between atoms: _69  and  _72
REMARK   33  A    between atoms: _75  and  _77
REMARK   34  A    between atoms: _77  and  _78
REMARK   35  A    between atoms: _77  and  _80
REMARK   36  A    between atoms: _80  and  _81
REMARK   37  A    between atoms: _84  and  _86
REMARK   38  A    between atoms: _86  and  _87
REMARK   39  A    between atoms: _86  and  _89
REMARK   40  A    between atoms: _89  and  _90
REMARK   41  A    between atoms: _93  and  _95
REMARK   42  A    between atoms: _95  and  _96
REMARK   43  A    between atoms: _98  and  _100
REMARK   44  A    between atoms: _100  and  _101
REMARK   45  A    between atoms: _100  and  _103
REMARK   46  A    between atoms: _103  and  _104
REMARK   47  A    between atoms: _106  and  _108
REMARK   48  A    between atoms: _108  and  _109
REMARK   49  A    between atoms: _108  and  _111
REMARK   50  A    between atoms: _111  and  _112
REMARK   51  A    between atoms: _114  and  _116
REMARK   52  A    between atoms: _116  and  _117
REMARK   53  A    between atoms: _116  and  _119
REMARK   54  A    between atoms: _119  and  _120
REMARK   55  A    between atoms: _125  and  _127
REMARK   56  A    between atoms: _127  and  _128
REMARK   57  A    between atoms: _127  and  _130
REMARK   58  A    between atoms: _130  and  _131
REMARK   59  A    between atoms: _137  and  _139
REMARK   60  A    between atoms: _139  and  _140
REMARK   61  A    between atoms: _143  and  _145
REMARK   62  A    between atoms: _145  and  _146
REMARK   63  A    between atoms: _145  and  _148
REMARK   64  A    between atoms: _151  and  _153
REMARK   65  A    between atoms: _153  and  _154
REMARK   66  A    between atoms: _153  and  _156
REMARK   67  A    between atoms: _159  and  _161
REMARK   68  A    between atoms: _161  and  _162
REMARK   69  A    between atoms: _161  and  _164
REMARK   70  A    between atoms: _164  and  _165
REMARK   71  A    between atoms: _170  and  _171
REMARK   72  A    between atoms: _173  and  _175
REMARK   73  A    between atoms: _175  and  _176
REMARK   74  A    between atoms: _175  and  _178
REMARK   75  A    between atoms: _182  and  _183
REMARK   76  A    between atoms: _188  and  _190
REMARK   77  A    between atoms: _190  and  _191
REMARK   78  A    between atoms: _190  and  _193
REMARK   79  A    between atoms: _193  and  _194
REMARK   80  A    between atoms: _199  and  _200
REMARK   81  A    between atoms: _202  and  _204
REMARK   82  A    between atoms: _204  and  _205
REMARK   83  A    between atoms: _204  and  _207
REMARK   84  A    between atoms: _207  and  _208
REMARK   85  A    between atoms: _211  and  _213
REMARK   86  A    between atoms: _213  and  _214
REMARK   87  A    between atoms: _213  and  _216
REMARK   88  A    between atoms: _216  and  _217
REMARK   89  A    between atoms: _217  and  _218
REMARK   90  A    between atoms: _223  and  _225
REMARK   91  A    between atoms: _225  and  _226
REMARK   92  A    between atoms: _228  and  _230
REMARK   93  A    between atoms: _230  and  _231
REMARK   94  A    between atoms: _230  and  _233
REMARK   95  A    between atoms: _233  and  _234
REMARK   96  A    between atoms: _234  and  _235
REMARK   97  A    between atoms: _235  and  _236
REMARK   98  A    between atoms: _236  and  _237
REMARK   99  A    between atoms: _241  and  _243
REMARK  100  A    between atoms: _243  and  _244
REMARK  101  A    between atoms: _243  and  _246
REMARK  102  A    between atoms: _246  and  _247
REMARK  103  A    between atoms: _257  and  _259
REMARK  104  A    between atoms: _259  and  _260
REMARK  105  A    between atoms: _263  and  _265
REMARK  106  A    between atoms: _265  and  _266
REMARK  107  A    between atoms: _265  and  _268
REMARK  108  A    between atoms: _268  and  _269
REMARK  109  A    between atoms: _272  and  _274
REMARK  110  A    between atoms: _274  and  _275
REMARK  111  A    between atoms: _274  and  _277
REMARK  112  A    between atoms: _277  and  _278
REMARK  113  A    between atoms: _281  and  _283
REMARK  114  A    between atoms: _283  and  _284
REMARK  115  A    between atoms: _283  and  _286
REMARK  116  A    between atoms: _286  and  _287
REMARK  117  A    between atoms: _287  and  _288
REMARK  118  A    between atoms: _288  and  _289
REMARK  119  A    between atoms: _289  and  _290
REMARK  120  A    between atoms: _294  and  _296
REMARK  121  A    between atoms: _296  and  _297
REMARK  122  A    between atoms: _296  and  _299
REMARK  123  A    between atoms: _299  and  _300
REMARK  124  A    between atoms: _306  and  _308
REMARK  125  A    between atoms: _308  and  _309
REMARK  126  A    between atoms: _308  and  _311
REMARK  127  A    between atoms: _311  and  _312
REMARK  128  A    between atoms: _318  and  _320
REMARK  129  A    between atoms: _320  and  _321
REMARK  130  A    between atoms: _320  and  _323
REMARK  131  A    between atoms: _323  and  _324
REMARK  132  A    between atoms: _327  and  _329
REMARK  133  A    between atoms: _329  and  _330
REMARK  134  A    between atoms: _329  and  _332
REMARK  135  A    between atoms: _332  and  _333
REMARK  136  A    between atoms: _335  and  _337
REMARK  137  A    between atoms: _337  and  _338
REMARK  138  A    between atoms: _337  and  _340
REMARK  139  A    between atoms: _340  and  _341
REMARK  140  A    between atoms: _351  and  _353
REMARK  141  A    between atoms: _353  and  _354
REMARK  142  A    between atoms: _356  and  _358
REMARK  143  A    between atoms: _358  and  _359
REMARK  144  A    between atoms: _358  and  _361
REMARK  145  A    between atoms: _361  and  _362
REMARK  146  A    between atoms: _365  and  _367
REMARK  147  A    between atoms: _367  and  _368
REMARK  148  A    between atoms: _367  and  _370
REMARK  149  A    between atoms: _370  and  _371
REMARK  150  A    between atoms: _374  and  _376
REMARK  151  A    between atoms: _376  and  _377
REMARK  152  A    between atoms: _379  and  _381
REMARK  153  A    between atoms: _381  and  _382
REMARK  154  A    between atoms: _381  and  _384
REMARK  155  A    between atoms: _384  and  _385
REMARK  156  A    between atoms: _388  and  _390
REMARK  157  A    between atoms: _390  and  _391
REMARK  158  A    between atoms: _390  and  _393
REMARK  159  A    between atoms: _393  and  _394
REMARK  160  A    between atoms: _397  and  _399
REMARK  161  A    between atoms: _399  and  _400
REMARK  162  A    between atoms: _403  and  _405
REMARK  163  A    between atoms: _405  and  _406
REMARK  164  A    between atoms: _405  and  _408
REMARK  165  A    between atoms: _408  and  _409
REMARK  166  A    between atoms: _409  and  _410
REMARK  167  A    between atoms: _410  and  _411
REMARK  168  A    between atoms: _421  and  _422
REMARK  169  A    between atoms: _427  and  _429
REMARK  170  A    between atoms: _429  and  _430
REMARK  171  A    between atoms: _429  and  _432
REMARK  172  A    between atoms: _432  and  _433
REMARK  173  A    between atoms: _436  and  _438
REMARK  174  A    between atoms: _438  and  _439
REMARK  175  A    between atoms: _438  and  _441
REMARK  176  A    between atoms: _441  and  _442
REMARK  177  A    between atoms: _447  and  _448
REMARK  178  A    between atoms: _450  and  _452
REMARK  179  A    between atoms: _452  and  _453
REMARK  180  A    between atoms: _452  and  _455
REMARK  181  A    between atoms: _455  and  _456
REMARK  182  A    between atoms: _459  and  _461
REMARK  183  A    between atoms: _461  and  _462
REMARK  184  A    between atoms: _461  and  _464
REMARK  185  A    between atoms: _467  and  _469
REMARK  186  A    between atoms: _469  and  _470
REMARK  187  A    between atoms: _469  and  _472
REMARK  188  A    between atoms: _472  and  _473
REMARK  189  A    between atoms: _476  and  _478
REMARK  190  A    between atoms: _478  and  _479
REMARK  191  A    between atoms: _478  and  _481
REMARK  192  A    between atoms: _481  and  _482
REMARK  193  A    between atoms: _484  and  _486
REMARK  194  A    between atoms: _486  and  _487
REMARK  195  A    between atoms: _489  and  _491
REMARK  196  A    between atoms: _491  and  _492
REMARK  197  A    between atoms: _491  and  _494
REMARK  198  A    between atoms: _494  and  _495
REMARK  199  A    between atoms: _498  and  _500
REMARK  200  A    between atoms: _500  and  _501
REMARK  201  A    between atoms: _500  and  _503
REMARK  202  A    between atoms: _503  and  _504
REMARK  203  A    between atoms: _507  and  _509
REMARK  204  A    between atoms: _509  and  _510
REMARK  205  A    between atoms: _509  and  _512
REMARK  206  A    between atoms: _512  and  _513
REMARK  207  A    between atoms: _518  and  _520
REMARK  208  A    between atoms: _520  and  _521
REMARK  209  A    between atoms: _520  and  _523
REMARK  210  A    between atoms: _523  and  _524
REMARK  211  A    between atoms: _524  and  _525
REMARK  212  A    between atoms: _525  and  _526
REMARK  213  A    between atoms: _535  and  _537
REMARK  214  A    between atoms: _537  and  _538
REMARK  215  A    between atoms: _537  and  _540
REMARK  216  A    between atoms: _543  and  _545
REMARK  217  A    between atoms: _545  and  _546
REMARK  218  A    between atoms: _548  and  _550
REMARK  219  A    between atoms: _550  and  _551
REMARK  220  A    between atoms: _554  and  _556
REMARK  221  A    between atoms: _556  and  _557
REMARK  222  A    between atoms: _556  and  _559
REMARK                            x       y       z     vdW  Elec       q    Type
REMARK                         _______ _______ _______ _____ _____    ______ ____
ROOT
ATOM      1  O   HOH     1      14.670   6.221  22.446  0.00  0.00    +0.000 OA
ENDROOT
TORSDOF 0
REMARK  Name = ../refined-set-2016/4h3f/4h3f_pocket.pdb
REMARK  222 active torsions:
REMARK  status: ('A' for Active; 'I' for Inactive)
REMARK    1  A    between atoms: _1  and  _3
REMARK    2  A    between atoms: _3  and  _4
REMARK    3  A    between atoms: _3  and  _6
REMARK    4  A    between atoms: _6  and  _7
REMARK    5  A    between atoms: _7  and  _8
REMARK    6  A    between atoms: _8  and  _9
REMARK    7  A    between atoms: _9  and  _10
REMARK    8  A    between atoms: _14  and  _16
REMARK    9  A    between atoms: _16  and  _17
REMARK   10  A    between atoms: _16  and  _19
REMARK   11  A    between atoms: _19  and  _20
REMARK   12  A    between atoms: _22  and  _24
REMARK   13  A    between atoms: _24  and  _25
REMARK   14  A    between atoms: _27  and  _29
REMARK   15  A    between atoms: _29  and  _30
REMARK   16  A    between atoms: _29  and  _32
REMARK   17  A    between atoms: _32  and  _33
REMARK   18  A    between atoms: _33  and  _34
REMARK   19  A    between atoms: _39  and  _41
REMARK   20  A    between atoms: _41  and  _42
REMARK   21  A    between atoms: _44  and  _46
REMARK   22  A    between atoms: _46  and  _47
REMARK   23  A    between atoms: _46  and  _49
REMARK   24  A    between atoms: _49  and  _50
REMARK   25  A    between atoms: _55  and  _56
REMARK   26  A    between atoms: _58  and  _60
REMARK   27  A    between atoms: _60  and  _61
REMARK   28  A    between atoms: _60  and  _63
REMARK   29  A    between atoms: _63  and  _64
REMARK   30  A    between atoms: _67  and  _69
REMARK   31  A    between atoms: _69  and  _70
REMARK   32  A    between atoms: _69  and  _72
REMARK   33  A    between atoms: _75  and  _77
REMARK   34  A    between atoms: _77  and  _78
REMARK   35  A    between atoms: _77  and  _80
REMARK   36  A    between atoms: _80  and  _81
REMARK   37  A    between atoms: _84  and  _86
REMARK   38  A    between atoms: _86  and  _87
REMARK   39  A    between atoms: _86  and  _89
REMARK   40  A    between atoms: _89  and  _90
REMARK   41  A    between atoms: _93  and  _95
REMARK   42  A    between atoms: _95  and  _96
REMARK   43  A    between atoms: _98  and  _100
REMARK   44  A    between atoms: _100  and  _101
REMARK   45  A    between atoms: _100  and  _103
REMARK   46  A    between atoms: _103  and  _104
REMARK   47  A    between atoms: _106  and  _108
REMARK   48  A    between atoms: _108  and  _109
REMARK   49  A    between atoms: _108  and  _111
REMARK   50  A    between atoms: _111  and  _112
REMARK   51  A    between atoms: _114  and  _116
REMARK   52  A    between atoms: _116  and  _117
REMARK   53  A    between atoms: _116  and  _119
REMARK   54  A    between atoms: _119  and  _120
REMARK   55  A    between atoms: _125  and  _127
REMARK   56  A    between atoms: _127  and  _128
REMARK   57  A    between atoms: _127  and  _130
REMARK   58  A    between atoms: _130  and  _131
REMARK   59  A    between atoms: _137  and  _139
REMARK   60  A    between atoms: _139  and  _140
REMARK   61  A    between atoms: _143  and  _145
REMARK   62  A    between atoms: _145  and  _146
REMARK   63  A    between atoms: _145  and  _148
REMARK   64  A    between atoms: _151  and  _153
REMARK   65  A    between atoms: _153  and  _154
REMARK   66  A    between atoms: _153  and  _156
REMARK   67  A    between atoms: _159  and  _161
REMARK   68  A    between atoms: _161  and  _162
REMARK   69  A    between atoms: _161  and  _164
REMARK   70  A    between atoms: _164  and  _165
REMARK   71  A    between atoms: _170  and  _171
REMARK   72  A    between atoms: _173  and  _175
REMARK   73  A    between atoms: _175  and  _176
REMARK   74  A    between atoms: _175  and  _178
REMARK   75  A    between atoms: _182  and  _183
REMARK   76  A    between atoms: _188  and  _190
REMARK   77  A    between atoms: _190  and  _191
REMARK   78  A    between atoms: _190  and  _193
REMARK   79  A    between atoms: _193  and  _194
REMARK   80  A    between atoms: _199  and  _200
REMARK   81  A    between atoms: _202  and  _204
REMARK   82  A    between atoms: _204  and  _205
REMARK   83  A    between atoms: _204  and  _207
REMARK   84  A    between atoms: _207  and  _208
REMARK   85  A    between atoms: _211  and  _213
REMARK   86  A    between atoms: _213  and  _214
REMARK   87  A    between atoms: _213  and  _216
REMARK   88  A    between atoms: _216  and  _217
REMARK   89  A    between atoms: _217  and  _218
REMARK   90  A    between atoms: _223  and  _225
REMARK   91  A    between atoms: _225  and  _226
REMARK   92  A    between atoms: _228  and  _230
REMARK   93  A    between atoms: _230  and  _231
REMARK   94  A    between atoms: _230  and  _233
REMARK   95  A    between atoms: _233  and  _234
REMARK   96  A    between atoms: _234  and  _235
REMARK   97  A    between atoms: _235  and  _236
REMARK   98  A    between atoms: _236  and  _237
REMARK   99  A    between atoms: _241  and  _243
REMARK  100  A    between atoms: _243  and  _244
REMARK  101  A    between atoms: _243  and  _246
REMARK  102  A    between atoms: _246  and  _247
REMARK  103  A    between atoms: _257  and  _259
REMARK  104  A    between atoms: _259  and  _260
REMARK  105  A    between atoms: _263  and  _265
REMARK  106  A    between atoms: _265  and  _266
REMARK  107  A    between atoms: _265  and  _268
REMARK  108  A    between atoms: _268  and  _269
REMARK  109  A    between atoms: _272  and  _274
REMARK  110  A    between atoms: _274  and  _275
REMARK  111  A    between atoms: _274  and  _277
REMARK  112  A    between atoms: _277  and  _278
REMARK  113  A    between atoms: _281  and  _283
REMARK  114  A    between atoms: _283  and  _284
REMARK  115  A    between atoms: _283  and  _286
REMARK  116  A    between atoms: _286  and  _287
REMARK  117  A    between atoms: _287  and  _288
REMARK  118  A    between atoms: _288  and  _289
REMARK  119  A    between atoms: _289  and  _290
REMARK  120  A    between atoms: _294  and  _296
REMARK  121  A    between atoms: _296  and  _297
REMARK  122  A    between atoms: _296  and  _299
REMARK  123  A    between atoms: _299  and  _300
REMARK  124  A    between atoms: _306  and  _308
REMARK  125  A    between atoms: _308  and  _309
REMARK  126  A    between atoms: _308  and  _311
REMARK  127  A    between atoms: _311  and  _312
REMARK  128  A    between atoms: _318  and  _320
REMARK  129  A    between atoms: _320  and  _321
REMARK  130  A    between atoms: _320  and  _323
REMARK  131  A    between atoms: _323  and  _324
REMARK  132  A    between atoms: _327  and  _329
REMARK  133  A    between atoms: _329  and  _330
REMARK  134  A    between atoms: _329  and  _332
REMARK  135  A    between atoms: _332  and  _333
REMARK  136  A    between atoms: _335  and  _337
REMARK  137  A    between atoms: _337  and  _338
REMARK  138  A    between atoms: _337  and  _340
REMARK  139  A    between atoms: _340  and  _341
REMARK  140  A    between atoms: _351  and  _353
REMARK  141  A    between atoms: _353  and  _354
REMARK  142  A    between atoms: _356  and  _358
REMARK  143  A    between atoms: _358  and  _359
REMARK  144  A    between atoms: _358  and  _361
REMARK  145  A    between atoms: _361  and  _362
REMARK  146  A    between atoms: _365  and  _367
REMARK  147  A    between atoms: _367  and  _368
REMARK  148  A    between atoms: _367  and  _370
REMARK  149  A    between atoms: _370  and  _371
REMARK  150  A    between atoms: _374  and  _376
REMARK  151  A    between atoms: _376  and  _377
REMARK  152  A    between atoms: _379  and  _381
REMARK  153  A    between atoms: _381  and  _382
REMARK  154  A    between atoms: _381  and  _384
REMARK  155  A    between atoms: _384  and  _385
REMARK  156  A    between atoms: _388  and  _390
REMARK  157  A    between atoms: _390  and  _391
REMARK  158  A    between atoms: _390  and  _393
REMARK  159  A    between atoms: _393  and  _394
REMARK  160  A    between atoms: _397  and  _399
REMARK  161  A    between atoms: _399  and  _400
REMARK  162  A    between atoms: _403  and  _405
REMARK  163  A    between atoms: _405  and  _406
REMARK  164  A    between atoms: _405  and  _408
REMARK  165  A    between atoms: _408  and  _409
REMARK  166  A    between atoms: _409  and  _410
REMARK  167  A    between atoms: _410  and  _411
REMARK  168  A    between atoms: _421  and  _422
REMARK  169  A    between atoms: _427  and  _429
REMARK  170  A    between atoms: _429  and  _430
REMARK  171  A    between atoms: _429  and  _432
REMARK  172  A    between atoms: _432  and  _433
REMARK  173  A    between atoms: _436  and  _438
REMARK  174  A    between atoms: _438  and  _439
REMARK  175  A    between atoms: _438  and  _441
REMARK  176  A    between atoms: _441  and  _442
REMARK  177  A    between atoms: _447  and  _448
REMARK  178  A    between atoms: _450  and  _452
REMARK  179  A    between atoms: _452  and  _453
REMARK  180  A    between atoms: _452  and  _455
REMARK  181  A    between atoms: _455  and  _456
REMARK  182  A    between atoms: _459  and  _461
REMARK  183  A    between atoms: _461  and  _462
REMARK  184  A    between atoms: _461  and  _464
REMARK  185  A    between atoms: _467  and  _469
REMARK  186  A    between atoms: _469  and  _470
REMARK  187  A    between atoms: _469  and  _472
REMARK  188  A    between atoms: _472  and  _473
REMARK  189  A    between atoms: _476  and  _478
REMARK  190  A    between atoms: _478  and  _479
REMARK  191  A    between atoms: _478  and  _481
REMARK  192  A    between atoms: _481  and  _482
REMARK  193  A    between atoms: _484  and  _486
REMARK  194  A    between atoms: _486  and  _487
REMARK  195  A    between atoms: _489  and  _491
REMARK  196  A    between atoms: _491  and  _492
REMARK  197  A    between atoms: _491  and  _494
REMARK  198  A    between atoms: _494  and  _495
REMARK  199  A    between atoms: _498  and  _500
REMARK  200  A    between atoms: _500  and  _501
REMARK  201  A    between atoms: _500  and  _503
REMARK  202  A    between atoms: _503  and  _504
REMARK  203  A    between atoms: _507  and  _509
REMARK  204  A    between atoms: _509  and  _510
REMARK  205  A    between atoms: _509  and  _512
REMARK  206  A    between atoms: _512  and  _513
REMARK  207  A    between atoms: _518  and  _520
REMARK  208  A    between atoms: _520  and  _521
REMARK  209  A    between atoms: _520  and  _523
REMARK  210  A    between atoms: _523  and  _524
REMARK  211  A    between atoms: _524  and  _525
REMARK  212  A    between atoms: _525  and  _526
REMARK  213  A    between atoms: _535  and  _537
REMARK  214  A    between atoms: _537  and  _538
REMARK  215  A    between atoms: _537  and  _540
REMARK  216  A    between atoms: _543  and  _545
REMARK  217  A    between atoms: _545  and  _546
REMARK  218  A    between atoms: _548  and  _550
REMARK  219  A    between atoms: _550  and  _551
REMARK  220  A    between atoms: _554  and  _556
REMARK  221  A    between atoms: _556  and  _557
REMARK  222  A    between atoms: _556  and  _559
REMARK                            x       y       z     vdW  Elec       q    Type
REMARK                         _______ _______ _______ _____ _____    ______ ____
ROOT
ATOM      1  O   HOH     1      24.094  13.966  28.278  0.00  0.00    +0.000 OA
ENDROOT
TORSDOF 0
REMARK  Name = ../refined-set-2016/4h3f/4h3f_pocket.pdb
REMARK  222 active torsions:
REMARK  status: ('A' for Active; 'I' for Inactive)
REMARK    1  A    between atoms: _1  and  _3
REMARK    2  A    between atoms: _3  and  _4
REMARK    3  A    between atoms: _3  and  _6
REMARK    4  A    between atoms: _6  and  _7
REMARK    5  A    between atoms: _7  and  _8
REMARK    6  A    between atoms: _8  and  _9
REMARK    7  A    between atoms: _9  and  _10
REMARK    8  A    between atoms: _14  and  _16
REMARK    9  A    between atoms: _16  and  _17
REMARK   10  A    between atoms: _16  and  _19
REMARK   11  A    between atoms: _19  and  _20
REMARK   12  A    between atoms: _22  and  _24
REMARK   13  A    between atoms: _24  and  _25
REMARK   14  A    between atoms: _27  and  _29
REMARK   15  A    between atoms: _29  and  _30
REMARK   16  A    between atoms: _29  and  _32
REMARK   17  A    between atoms: _32  and  _33
REMARK   18  A    between atoms: _33  and  _34
REMARK   19  A    between atoms: _39  and  _41
REMARK   20  A    between atoms: _41  and  _42
REMARK   21  A    between atoms: _44  and  _46
REMARK   22  A    between atoms: _46  and  _47
REMARK   23  A    between atoms: _46  and  _49
REMARK   24  A    between atoms: _49  and  _50
REMARK   25  A    between atoms: _55  and  _56
REMARK   26  A    between atoms: _58  and  _60
REMARK   27  A    between atoms: _60  and  _61
REMARK   28  A    between atoms: _60  and  _63
REMARK   29  A    between atoms: _63  and  _64
REMARK   30  A    between atoms: _67  and  _69
REMARK   31  A    between atoms: _69  and  _70
REMARK   32  A    between atoms: _69  and  _72
REMARK   33  A    between atoms: _75  and  _77
REMARK   34  A    between atoms: _77  and  _78
REMARK   35  A    between atoms: _77  and  _80
REMARK   36  A    between atoms: _80  and  _81
REMARK   37  A    between atoms: _84  and  _86
REMARK   38  A    between atoms: _86  and  _87
REMARK   39  A    between atoms: _86  and  _89
REMARK   40  A    between atoms: _89  and  _90
REMARK   41  A    between atoms: _93  and  _95
REMARK   42  A    between atoms: _95  and  _96
REMARK   43  A    between atoms: _98  and  _100
REMARK   44  A    between atoms: _100  and  _101
REMARK   45  A    between atoms: _100  and  _103
REMARK   46  A    between atoms: _103  and  _104
REMARK   47  A    between atoms: _106  and  _108
REMARK   48  A    between atoms: _108  and  _109
REMARK   49  A    between atoms: _108  and  _111
REMARK   50  A    between atoms: _111  and  _112
REMARK   51  A    between atoms: _114  and  _116
REMARK   52  A    between atoms: _116  and  _117
REMARK   53  A    between atoms: _116  and  _119
REMARK   54  A    between atoms: _119  and  _120
REMARK   55  A    between atoms: _125  and  _127
REMARK   56  A    between atoms: _127  and  _128
REMARK   57  A    between atoms: _127  and  _130
REMARK   58  A    between atoms: _130  and  _131
REMARK   59  A    between atoms: _137  and  _139
REMARK   60  A    between atoms: _139  and  _140
REMARK   61  A    between atoms: _143  and  _145
REMARK   62  A    between atoms: _145  and  _146
REMARK   63  A    between atoms: _145  and  _148
REMARK   64  A    between atoms: _151  and  _153
REMARK   65  A    between atoms: _153  and  _154
REMARK   66  A    between atoms: _153  and  _156
REMARK   67  A    between atoms: _159  and  _161
REMARK   68  A    between atoms: _161  and  _162
REMARK   69  A    between atoms: _161  and  _164
REMARK   70  A    between atoms: _164  and  _165
REMARK   71  A    between atoms: _170  and  _171
REMARK   72  A    between atoms: _173  and  _175
REMARK   73  A    between atoms: _175  and  _176
REMARK   74  A    between atoms: _175  and  _178
REMARK   75  A    between atoms: _182  and  _183
REMARK   76  A    between atoms: _188  and  _190
REMARK   77  A    between atoms: _190  and  _191
REMARK   78  A    between atoms: _190  and  _193
REMARK   79  A    between atoms: _193  and  _194
REMARK   80  A    between atoms: _199  and  _200
REMARK   81  A    between atoms: _202  and  _204
REMARK   82  A    between atoms: _204  and  _205
REMARK   83  A    between atoms: _204  and  _207
REMARK   84  A    between atoms: _207  and  _208
REMARK   85  A    between atoms: _211  and  _213
REMARK   86  A    between atoms: _213  and  _214
REMARK   87  A    between atoms: _213  and  _216
REMARK   88  A    between atoms: _216  and  _217
REMARK   89  A    between atoms: _217  and  _218
REMARK   90  A    between atoms: _223  and  _225
REMARK   91  A    between atoms: _225  and  _226
REMARK   92  A    between atoms: _228  and  _230
REMARK   93  A    between atoms: _230  and  _231
REMARK   94  A    between atoms: _230  and  _233
REMARK   95  A    between atoms: _233  and  _234
REMARK   96  A    between atoms: _234  and  _235
REMARK   97  A    between atoms: _235  and  _236
REMARK   98  A    between atoms: _236  and  _237
REMARK   99  A    between atoms: _241  and  _243
REMARK  100  A    between atoms: _243  and  _244
REMARK  101  A    between atoms: _243  and  _246
REMARK  102  A    between atoms: _246  and  _247
REMARK  103  A    between atoms: _257  and  _259
REMARK  104  A    between atoms: _259  and  _260
REMARK  105  A    between atoms: _263  and  _265
REMARK  106  A    between atoms: _265  and  _266
REMARK  107  A    between atoms: _265  and  _268
REMARK  108  A    between atoms: _268  and  _269
REMARK  109  A    between atoms: _272  and  _274
REMARK  110  A    between atoms: _274  and  _275
REMARK  111  A    between atoms: _274  and  _277
REMARK  112  A    between atoms: _277  and  _278
REMARK  113  A    between atoms: _281  and  _283
REMARK  114  A    between atoms: _283  and  _284
REMARK  115  A    between atoms: _283  and  _286
REMARK  116  A    between atoms: _286  and  _287
REMARK  117  A    between atoms: _287  and  _288
REMARK  118  A    between atoms: _288  and  _289
REMARK  119  A    between atoms: _289  and  _290
REMARK  120  A    between atoms: _294  and  _296
REMARK  121  A    between atoms: _296  and  _297
REMARK  122  A    between atoms: _296  and  _299
REMARK  123  A    between atoms: _299  and  _300
REMARK  124  A    between atoms: _306  and  _308
REMARK  125  A    between atoms: _308  and  _309
REMARK  126  A    between atoms: _308  and  _311
REMARK  127  A    between atoms: _311  and  _312
REMARK  128  A    between atoms: _318  and  _320
REMARK  129  A    between atoms: _320  and  _321
REMARK  130  A    between atoms: _320  and  _323
REMARK  131  A    between atoms: _323  and  _324
REMARK  132  A    between atoms: _327  and  _329
REMARK  133  A    between atoms: _329  and  _330
REMARK  134  A    between atoms: _329  and  _332
REMARK  135  A    between atoms: _332  and  _333
REMARK  136  A    between atoms: _335  and  _337
REMARK  137  A    between atoms: _337  and  _338
REMARK  138  A    between atoms: _337  and  _340
REMARK  139  A    between atoms: _340  and  _341
REMARK  140  A    between atoms: _351  and  _353
REMARK  141  A    between atoms: _353  and  _354
REMARK  142  A    between atoms: _356  and  _358
REMARK  143  A    between atoms: _358  and  _359
REMARK  144  A    between atoms: _358  and  _361
REMARK  145  A    between atoms: _361  and  _362
REMARK  146  A    between atoms: _365  and  _367
REMARK  147  A    between atoms: _367  and  _368
REMARK  148  A    between atoms: _367  and  _370
REMARK  149  A    between atoms: _370  and  _371
REMARK  150  A    between atoms: _374  and  _376
REMARK  151  A    between atoms: _376  and  _377
REMARK  152  A    between atoms: _379  and  _381
REMARK  153  A    between atoms: _381  and  _382
REMARK  154  A    between atoms: _381  and  _384
REMARK  155  A    between atoms: _384  and  _385
REMARK  156  A    between atoms: _388  and  _390
REMARK  157  A    between atoms: _390  and  _391
REMARK  158  A    between atoms: _390  and  _393
REMARK  159  A    between atoms: _393  and  _394
REMARK  160  A    between atoms: _397  and  _399
REMARK  161  A    between atoms: _399  and  _400
REMARK  162  A    between atoms: _403  and  _405
REMARK  163  A    between atoms: _405  and  _406
REMARK  164  A    between atoms: _405  and  _408
REMARK  165  A    between atoms: _408  and  _409
REMARK  166  A    between atoms: _409  and  _410
REMARK  167  A    between atoms: _410  and  _411
REMARK  168  A    between atoms: _421  and  _422
REMARK  169  A    between atoms: _427  and  _429
REMARK  170  A    between atoms: _429  and  _430
REMARK  171  A    between atoms: _429  and  _432
REMARK  172  A    between atoms: _432  and  _433
REMARK  173  A    between atoms: _436  and  _438
REMARK  174  A    between atoms: _438  and  _439
REMARK  175  A    between atoms: _438  and  _441
REMARK  176  A    between atoms: _441  and  _442
REMARK  177  A    between atoms: _447  and  _448
REMARK  178  A    between atoms: _450  and  _452
REMARK  179  A    between atoms: _452  and  _453
REMARK  180  A    between atoms: _452  and  _455
REMARK  181  A    between atoms: _455  and  _456
REMARK  182  A    between atoms: _459  and  _461
REMARK  183  A    between atoms: _461  and  _462
REMARK  184  A    between atoms: _461  and  _464
REMARK  185  A    between atoms: _467  and  _469
REMARK  186  A    between atoms: _469  and  _470
REMARK  187  A    between atoms: _469  and  _472
REMARK  188  A    between atoms: _472  and  _473
REMARK  189  A    between atoms: _476  and  _478
REMARK  190  A    between atoms: _478  and  _479
REMARK  191  A    between atoms: _478  and  _481
REMARK  192  A    between atoms: _481  and  _482
REMARK  193  A    between atoms: _484  and  _486
REMARK  194  A    between atoms: _486  and  _487
REMARK  195  A    between atoms: _489  and  _491
REMARK  196  A    between atoms: _491  and  _492
REMARK  197  A    between atoms: _491  and  _494
REMARK  198  A    between atoms: _494  and  _495
REMARK  199  A    between atoms: _498  and  _500
REMARK  200  A    between atoms: _500  and  _501
REMARK  201  A    between atoms: _500  and  _503
REMARK  202  A    between atoms: _503  and  _504
REMARK  203  A    between atoms: _507  and  _509
REMARK  204  A    between atoms: _509  and  _510
REMARK  205  A    between atoms: _509  and  _512
REMARK  206  A    between atoms: _512  and  _513
REMARK  207  A    between atoms: _518  and  _520
REMARK  208  A    between atoms: _520  and  _521
REMARK  209  A    between atoms: _520  and  _523
REMARK  210  A    between atoms: _523  and  _524
REMARK  211  A    between atoms: _524  and  _525
REMARK  212  A    between atoms: _525  and  _526
REMARK  213  A    between atoms: _535  and  _537
REMARK  214  A    between atoms: _537  and  _538
REMARK  215  A    between atoms: _537  and  _540
REMARK  216  A    between atoms: _543  and  _545
REMARK  217  A    between atoms: _545  and  _546
REMARK  218  A    between atoms: _548  and  _550
REMARK  219  A    between atoms: _550  and  _551
REMARK  220  A    between atoms: _554  and  _556
REMARK  221  A    between atoms: _556  and  _557
REMARK  222  A    between atoms: _556  and  _559
REMARK                            x       y       z     vdW  Elec       q    Type
REMARK                         _______ _______ _______ _____ _____    ______ ____
ROOT
ATOM      1  O   HOH     1      29.230  14.965  27.197  0.00  0.00    +0.000 OA
ENDROOT
TORSDOF 0
REMARK  Name = ../refined-set-2016/4h3f/4h3f_pocket.pdb
REMARK  222 active torsions:
REMARK  status: ('A' for Active; 'I' for Inactive)
REMARK    1  A    between atoms: _1  and  _3
REMARK    2  A    between atoms: _3  and  _4
REMARK    3  A    between atoms: _3  and  _6
REMARK    4  A    between atoms: _6  and  _7
REMARK    5  A    between atoms: _7  and  _8
REMARK    6  A    between atoms: _8  and  _9
REMARK    7  A    between atoms: _9  and  _10
REMARK    8  A    between atoms: _14  and  _16
REMARK    9  A    between atoms: _16  and  _17
REMARK   10  A    between atoms: _16  and  _19
REMARK   11  A    between atoms: _19  and  _20
REMARK   12  A    between atoms: _22  and  _24
REMARK   13  A    between atoms: _24  and  _25
REMARK   14  A    between atoms: _27  and  _29
REMARK   15  A    between atoms: _29  and  _30
REMARK   16  A    between atoms: _29  and  _32
REMARK   17  A    between atoms: _32  and  _33
REMARK   18  A    between atoms: _33  and  _34
REMARK   19  A    between atoms: _39  and  _41
REMARK   20  A    between atoms: _41  and  _42
REMARK   21  A    between atoms: _44  and  _46
REMARK   22  A    between atoms: _46  and  _47
REMARK   23  A    between atoms: _46  and  _49
REMARK   24  A    between atoms: _49  and  _50
REMARK   25  A    between atoms: _55  and  _56
REMARK   26  A    between atoms: _58  and  _60
REMARK   27  A    between atoms: _60  and  _61
REMARK   28  A    between atoms: _60  and  _63
REMARK   29  A    between atoms: _63  and  _64
REMARK   30  A    between atoms: _67  and  _69
REMARK   31  A    between atoms: _69  and  _70
REMARK   32  A    between atoms: _69  and  _72
REMARK   33  A    between atoms: _75  and  _77
REMARK   34  A    between atoms: _77  and  _78
REMARK   35  A    between atoms: _77  and  _80
REMARK   36  A    between atoms: _80  and  _81
REMARK   37  A    between atoms: _84  and  _86
REMARK   38  A    between atoms: _86  and  _87
REMARK   39  A    between atoms: _86  and  _89
REMARK   40  A    between atoms: _89  and  _90
REMARK   41  A    between atoms: _93  and  _95
REMARK   42  A    between atoms: _95  and  _96
REMARK   43  A    between atoms: _98  and  _100
REMARK   44  A    between atoms: _100  and  _101
REMARK   45  A    between atoms: _100  and  _103
REMARK   46  A    between atoms: _103  and  _104
REMARK   47  A    between atoms: _106  and  _108
REMARK   48  A    between atoms: _108  and  _109
REMARK   49  A    between atoms: _108  and  _111
REMARK   50  A    between atoms: _111  and  _112
REMARK   51  A    between atoms: _114  and  _116
REMARK   52  A    between atoms: _116  and  _117
REMARK   53  A    between atoms: _116  and  _119
REMARK   54  A    between atoms: _119  and  _120
REMARK   55  A    between atoms: _125  and  _127
REMARK   56  A    between atoms: _127  and  _128
REMARK   57  A    between atoms: _127  and  _130
REMARK   58  A    between atoms: _130  and  _131
REMARK   59  A    between atoms: _137  and  _139
REMARK   60  A    between atoms: _139  and  _140
REMARK   61  A    between atoms: _143  and  _145
REMARK   62  A    between atoms: _145  and  _146
REMARK   63  A    between atoms: _145  and  _148
REMARK   64  A    between atoms: _151  and  _153
REMARK   65  A    between atoms: _153  and  _154
REMARK   66  A    between atoms: _153  and  _156
REMARK   67  A    between atoms: _159  and  _161
REMARK   68  A    between atoms: _161  and  _162
REMARK   69  A    between atoms: _161  and  _164
REMARK   70  A    between atoms: _164  and  _165
REMARK   71  A    between atoms: _170  and  _171
REMARK   72  A    between atoms: _173  and  _175
REMARK   73  A    between atoms: _175  and  _176
REMARK   74  A    between atoms: _175  and  _178
REMARK   75  A    between atoms: _182  and  _183
REMARK   76  A    between atoms: _188  and  _190
REMARK   77  A    between atoms: _190  and  _191
REMARK   78  A    between atoms: _190  and  _193
REMARK   79  A    between atoms: _193  and  _194
REMARK   80  A    between atoms: _199  and  _200
REMARK   81  A    between atoms: _202  and  _204
REMARK   82  A    between atoms: _204  and  _205
REMARK   83  A    between atoms: _204  and  _207
REMARK   84  A    between atoms: _207  and  _208
REMARK   85  A    between atoms: _211  and  _213
REMARK   86  A    between atoms: _213  and  _214
REMARK   87  A    between atoms: _213  and  _216
REMARK   88  A    between atoms: _216  and  _217
REMARK   89  A    between atoms: _217  and  _218
REMARK   90  A    between atoms: _223  and  _225
REMARK   91  A    between atoms: _225  and  _226
REMARK   92  A    between atoms: _228  and  _230
REMARK   93  A    between atoms: _230  and  _231
REMARK   94  A    between atoms: _230  and  _233
REMARK   95  A    between atoms: _233  and  _234
REMARK   96  A    between atoms: _234  and  _235
REMARK   97  A    between atoms: _235  and  _236
REMARK   98  A    between atoms: _236  and  _237
REMARK   99  A    between atoms: _241  and  _243
REMARK  100  A    between atoms: _243  and  _244
REMARK  101  A    between atoms: _243  and  _246
REMARK  102  A    between atoms: _246  and  _247
REMARK  103  A    between atoms: _257  and  _259
REMARK  104  A    between atoms: _259  and  _260
REMARK  105  A    between atoms: _263  and  _265
REMARK  106  A    between atoms: _265  and  _266
REMARK  107  A    between atoms: _265  and  _268
REMARK  108  A    between atoms: _268  and  _269
REMARK  109  A    between atoms: _272  and  _274
REMARK  110  A    between atoms: _274  and  _275
REMARK  111  A    between atoms: _274  and  _277
REMARK  112  A    between atoms: _277  and  _278
REMARK  113  A    between atoms: _281  and  _283
REMARK  114  A    between atoms: _283  and  _284
REMARK  115  A    between atoms: _283  and  _286
REMARK  116  A    between atoms: _286  and  _287
REMARK  117  A    between atoms: _287  and  _288
REMARK  118  A    between atoms: _288  and  _289
REMARK  119  A    between atoms: _289  and  _290
REMARK  120  A    between atoms: _294  and  _296
REMARK  121  A    between atoms: _296  and  _297
REMARK  122  A    between atoms: _296  and  _299
REMARK  123  A    between atoms: _299  and  _300
REMARK  124  A    between atoms: _306  and  _308
REMARK  125  A    between atoms: _308  and  _309
REMARK  126  A    between atoms: _308  and  _311
REMARK  127  A    between atoms: _311  and  _312
REMARK  128  A    between atoms: _318  and  _320
REMARK  129  A    between atoms: _320  and  _321
REMARK  130  A    between atoms: _320  and  _323
REMARK  131  A    between atoms: _323  and  _324
REMARK  132  A    between atoms: _327  and  _329
REMARK  133  A    between atoms: _329  and  _330
REMARK  134  A    between atoms: _329  and  _332
REMARK  135  A    between atoms: _332  and  _333
REMARK  136  A    between atoms: _335  and  _337
REMARK  137  A    between atoms: _337  and  _338
REMARK  138  A    between atoms: _337  and  _340
REMARK  139  A    between atoms: _340  and  _341
REMARK  140  A    between atoms: _351  and  _353
REMARK  141  A    between atoms: _353  and  _354
REMARK  142  A    between atoms: _356  and  _358
REMARK  143  A    between atoms: _358  and  _359
REMARK  144  A    between atoms: _358  and  _361
REMARK  145  A    between atoms: _361  and  _362
REMARK  146  A    between atoms: _365  and  _367
REMARK  147  A    between atoms: _367  and  _368
REMARK  148  A    between atoms: _367  and  _370
REMARK  149  A    between atoms: _370  and  _371
REMARK  150  A    between atoms: _374  and  _376
REMARK  151  A    between atoms: _376  and  _377
REMARK  152  A    between atoms: _379  and  _381
REMARK  153  A    between atoms: _381  and  _382
REMARK  154  A    between atoms: _381  and  _384
REMARK  155  A    between atoms: _384  and  _385
REMARK  156  A    between atoms: _388  and  _390
REMARK  157  A    between atoms: _390  and  _391
REMARK  158  A    between atoms: _390  and  _393
REMARK  159  A    between atoms: _393  and  _394
REMARK  160  A    between atoms: _397  and  _399
REMARK  161  A    between atoms: _399  and  _400
REMARK  162  A    between atoms: _403  and  _405
REMARK  163  A    between atoms: _405  and  _406
REMARK  164  A    between atoms: _405  and  _408
REMARK  165  A    between atoms: _408  and  _409
REMARK  166  A    between atoms: _409  and  _410
REMARK  167  A    between atoms: _410  and  _411
REMARK  168  A    between atoms: _421  and  _422
REMARK  169  A    between atoms: _427  and  _429
REMARK  170  A    between atoms: _429  and  _430
REMARK  171  A    between atoms: _429  and  _432
REMARK  172  A    between atoms: _432  and  _433
REMARK  173  A    between atoms: _436  and  _438
REMARK  174  A    between atoms: _438  and  _439
REMARK  175  A    between atoms: _438  and  _441
REMARK  176  A    between atoms: _441  and  _442
REMARK  177  A    between atoms: _447  and  _448
REMARK  178  A    between atoms: _450  and  _452
REMARK  179  A    between atoms: _452  and  _453
REMARK  180  A    between atoms: _452  and  _455
REMARK  181  A    between atoms: _455  and  _456
REMARK  182  A    between atoms: _459  and  _461
REMARK  183  A    between atoms: _461  and  _462
REMARK  184  A    between atoms: _461  and  _464
REMARK  185  A    between atoms: _467  and  _469
REMARK  186  A    between atoms: _469  and  _470
REMARK  187  A    between atoms: _469  and  _472
REMARK  188  A    between atoms: _472  and  _473
REMARK  189  A    between atoms: _476  and  _478
REMARK  190  A    between atoms: _478  and  _479
REMARK  191  A    between atoms: _478  and  _481
REMARK  192  A    between atoms: _481  and  _482
REMARK  193  A    between atoms: _484  and  _486
REMARK  194  A    between atoms: _486  and  _487
REMARK  195  A    between atoms: _489  and  _491
REMARK  196  A    between atoms: _491  and  _492
REMARK  197  A    between atoms: _491  and  _494
REMARK  198  A    between atoms: _494  and  _495
REMARK  199  A    between atoms: _498  and  _500
REMARK  200  A    between atoms: _500  and  _501
REMARK  201  A    between atoms: _500  and  _503
REMARK  202  A    between atoms: _503  and  _504
REMARK  203  A    between atoms: _507  and  _509
REMARK  204  A    between atoms: _509  and  _510
REMARK  205  A    between atoms: _509  and  _512
REMARK  206  A    between atoms: _512  and  _513
REMARK  207  A    between atoms: _518  and  _520
REMARK  208  A    between atoms: _520  and  _521
REMARK  209  A    between atoms: _520  and  _523
REMARK  210  A    between atoms: _523  and  _524
REMARK  211  A    between atoms: _524  and  _525
REMARK  212  A    between atoms: _525  and  _526
REMARK  213  A    between atoms: _535  and  _537
REMARK  214  A    between atoms: _537  and  _538
REMARK  215  A    between atoms: _537  and  _540
REMARK  216  A    between atoms: _543  and  _545
REMARK  217  A    between atoms: _545  and  _546
REMARK  218  A    between atoms: _548  and  _550
REMARK  219  A    between atoms: _550  and  _551
REMARK  220  A    between atoms: _554  and  _556
REMARK  221  A    between atoms: _556  and  _557
REMARK  222  A    between atoms: _556  and  _559
REMARK                            x       y       z     vdW  Elec       q    Type
REMARK                         _______ _______ _______ _____ _____    ______ ____
ROOT
ATOM      1  O   HOH     1      16.821   9.402  25.364  0.00  0.00    +0.000 OA
ENDROOT
TORSDOF 0
REMARK  Name = ../refined-set-2016/4h3f/4h3f_pocket.pdb
REMARK  222 active torsions:
REMARK  status: ('A' for Active; 'I' for Inactive)
REMARK    1  A    between atoms: _1  and  _3
REMARK    2  A    between atoms: _3  and  _4
REMARK    3  A    between atoms: _3  and  _6
REMARK    4  A    between atoms: _6  and  _7
REMARK    5  A    between atoms: _7  and  _8
REMARK    6  A    between atoms: _8  and  _9
REMARK    7  A    between atoms: _9  and  _10
REMARK    8  A    between atoms: _14  and  _16
REMARK    9  A    between atoms: _16  and  _17
REMARK   10  A    between atoms: _16  and  _19
REMARK   11  A    between atoms: _19  and  _20
REMARK   12  A    between atoms: _22  and  _24
REMARK   13  A    between atoms: _24  and  _25
REMARK   14  A    between atoms: _27  and  _29
REMARK   15  A    between atoms: _29  and  _30
REMARK   16  A    between atoms: _29  and  _32
REMARK   17  A    between atoms: _32  and  _33
REMARK   18  A    between atoms: _33  and  _34
REMARK   19  A    between atoms: _39  and  _41
REMARK   20  A    between atoms: _41  and  _42
REMARK   21  A    between atoms: _44  and  _46
REMARK   22  A    between atoms: _46  and  _47
REMARK   23  A    between atoms: _46  and  _49
REMARK   24  A    between atoms: _49  and  _50
REMARK   25  A    between atoms: _55  and  _56
REMARK   26  A    between atoms: _58  and  _60
REMARK   27  A    between atoms: _60  and  _61
REMARK   28  A    between atoms: _60  and  _63
REMARK   29  A    between atoms: _63  and  _64
REMARK   30  A    between atoms: _67  and  _69
REMARK   31  A    between atoms: _69  and  _70
REMARK   32  A    between atoms: _69  and  _72
REMARK   33  A    between atoms: _75  and  _77
REMARK   34  A    between atoms: _77  and  _78
REMARK   35  A    between atoms: _77  and  _80
REMARK   36  A    between atoms: _80  and  _81
REMARK   37  A    between atoms: _84  and  _86
REMARK   38  A    between atoms: _86  and  _87
REMARK   39  A    between atoms: _86  and  _89
REMARK   40  A    between atoms: _89  and  _90
REMARK   41  A    between atoms: _93  and  _95
REMARK   42  A    between atoms: _95  and  _96
REMARK   43  A    between atoms: _98  and  _100
REMARK   44  A    between atoms: _100  and  _101
REMARK   45  A    between atoms: _100  and  _103
REMARK   46  A    between atoms: _103  and  _104
REMARK   47  A    between atoms: _106  and  _108
REMARK   48  A    between atoms: _108  and  _109
REMARK   49  A    between atoms: _108  and  _111
REMARK   50  A    between atoms: _111  and  _112
REMARK   51  A    between atoms: _114  and  _116
REMARK   52  A    between atoms: _116  and  _117
REMARK   53  A    between atoms: _116  and  _119
REMARK   54  A    between atoms: _119  and  _120
REMARK   55  A    between atoms: _125  and  _127
REMARK   56  A    between atoms: _127  and  _128
REMARK   57  A    between atoms: _127  and  _130
REMARK   58  A    between atoms: _130  and  _131
REMARK   59  A    between atoms: _137  and  _139
REMARK   60  A    between atoms: _139  and  _140
REMARK   61  A    between atoms: _143  and  _145
REMARK   62  A    between atoms: _145  and  _146
REMARK   63  A    between atoms: _145  and  _148
REMARK   64  A    between atoms: _151  and  _153
REMARK   65  A    between atoms: _153  and  _154
REMARK   66  A    between atoms: _153  and  _156
REMARK   67  A    between atoms: _159  and  _161
REMARK   68  A    between atoms: _161  and  _162
REMARK   69  A    between atoms: _161  and  _164
REMARK   70  A    between atoms: _164  and  _165
REMARK   71  A    between atoms: _170  and  _171
REMARK   72  A    between atoms: _173  and  _175
REMARK   73  A    between atoms: _175  and  _176
REMARK   74  A    between atoms: _175  and  _178
REMARK   75  A    between atoms: _182  and  _183
REMARK   76  A    between atoms: _188  and  _190
REMARK   77  A    between atoms: _190  and  _191
REMARK   78  A    between atoms: _190  and  _193
REMARK   79  A    between atoms: _193  and  _194
REMARK   80  A    between atoms: _199  and  _200
REMARK   81  A    between atoms: _202  and  _204
REMARK   82  A    between atoms: _204  and  _205
REMARK   83  A    between atoms: _204  and  _207
REMARK   84  A    between atoms: _207  and  _208
REMARK   85  A    between atoms: _211  and  _213
REMARK   86  A    between atoms: _213  and  _214
REMARK   87  A    between atoms: _213  and  _216
REMARK   88  A    between atoms: _216  and  _217
REMARK   89  A    between atoms: _217  and  _218
REMARK   90  A    between atoms: _223  and  _225
REMARK   91  A    between atoms: _225  and  _226
REMARK   92  A    between atoms: _228  and  _230
REMARK   93  A    between atoms: _230  and  _231
REMARK   94  A    between atoms: _230  and  _233
REMARK   95  A    between atoms: _233  and  _234
REMARK   96  A    between atoms: _234  and  _235
REMARK   97  A    between atoms: _235  and  _236
REMARK   98  A    between atoms: _236  and  _237
REMARK   99  A    between atoms: _241  and  _243
REMARK  100  A    between atoms: _243  and  _244
REMARK  101  A    between atoms: _243  and  _246
REMARK  102  A    between atoms: _246  and  _247
REMARK  103  A    between atoms: _257  and  _259
REMARK  104  A    between atoms: _259  and  _260
REMARK  105  A    between atoms: _263  and  _265
REMARK  106  A    between atoms: _265  and  _266
REMARK  107  A    between atoms: _265  and  _268
REMARK  108  A    between atoms: _268  and  _269
REMARK  109  A    between atoms: _272  and  _274
REMARK  110  A    between atoms: _274  and  _275
REMARK  111  A    between atoms: _274  and  _277
REMARK  112  A    between atoms: _277  and  _278
REMARK  113  A    between atoms: _281  and  _283
REMARK  114  A    between atoms: _283  and  _284
REMARK  115  A    between atoms: _283  and  _286
REMARK  116  A    between atoms: _286  and  _287
REMARK  117  A    between atoms: _287  and  _288
REMARK  118  A    between atoms: _288  and  _289
REMARK  119  A    between atoms: _289  and  _290
REMARK  120  A    between atoms: _294  and  _296
REMARK  121  A    between atoms: _296  and  _297
REMARK  122  A    between atoms: _296  and  _299
REMARK  123  A    between atoms: _299  and  _300
REMARK  124  A    between atoms: _306  and  _308
REMARK  125  A    between atoms: _308  and  _309
REMARK  126  A    between atoms: _308  and  _311
REMARK  127  A    between atoms: _311  and  _312
REMARK  128  A    between atoms: _318  and  _320
REMARK  129  A    between atoms: _320  and  _321
REMARK  130  A    between atoms: _320  and  _323
REMARK  131  A    between atoms: _323  and  _324
REMARK  132  A    between atoms: _327  and  _329
REMARK  133  A    between atoms: _329  and  _330
REMARK  134  A    between atoms: _329  and  _332
REMARK  135  A    between atoms: _332  and  _333
REMARK  136  A    between atoms: _335  and  _337
REMARK  137  A    between atoms: _337  and  _338
REMARK  138  A    between atoms: _337  and  _340
REMARK  139  A    between atoms: _340  and  _341
REMARK  140  A    between atoms: _351  and  _353
REMARK  141  A    between atoms: _353  and  _354
REMARK  142  A    between atoms: _356  and  _358
REMARK  143  A    between atoms: _358  and  _359
REMARK  144  A    between atoms: _358  and  _361
REMARK  145  A    between atoms: _361  and  _362
REMARK  146  A    between atoms: _365  and  _367
REMARK  147  A    between atoms: _367  and  _368
REMARK  148  A    between atoms: _367  and  _370
REMARK  149  A    between atoms: _370  and  _371
REMARK  150  A    between atoms: _374  and  _376
REMARK  151  A    between atoms: _376  and  _377
REMARK  152  A    between atoms: _379  and  _381
REMARK  153  A    between atoms: _381  and  _382
REMARK  154  A    between atoms: _381  and  _384
REMARK  155  A    between atoms: _384  and  _385
REMARK  156  A    between atoms: _388  and  _390
REMARK  157  A    between atoms: _390  and  _391
REMARK  158  A    between atoms: _390  and  _393
REMARK  159  A    between atoms: _393  and  _394
REMARK  160  A    between atoms: _397  and  _399
REMARK  161  A    between atoms: _399  and  _400
REMARK  162  A    between atoms: _403  and  _405
REMARK  163  A    between atoms: _405  and  _406
REMARK  164  A    between atoms: _405  and  _408
REMARK  165  A    between atoms: _408  and  _409
REMARK  166  A    between atoms: _409  and  _410
REMARK  167  A    between atoms: _410  and  _411
REMARK  168  A    between atoms: _421  and  _422
REMARK  169  A    between atoms: _427  and  _429
REMARK  170  A    between atoms: _429  and  _430
REMARK  171  A    between atoms: _429  and  _432
REMARK  172  A    between atoms: _432  and  _433
REMARK  173  A    between atoms: _436  and  _438
REMARK  174  A    between atoms: _438  and  _439
REMARK  175  A    between atoms: _438  and  _441
REMARK  176  A    between atoms: _441  and  _442
REMARK  177  A    between atoms: _447  and  _448
REMARK  178  A    between atoms: _450  and  _452
REMARK  179  A    between atoms: _452  and  _453
REMARK  180  A    between atoms: _452  and  _455
REMARK  181  A    between atoms: _455  and  _456
REMARK  182  A    between atoms: _459  and  _461
REMARK  183  A    between atoms: _461  and  _462
REMARK  184  A    between atoms: _461  and  _464
REMARK  185  A    between atoms: _467  and  _469
REMARK  186  A    between atoms: _469  and  _470
REMARK  187  A    between atoms: _469  and  _472
REMARK  188  A    between atoms: _472  and  _473
REMARK  189  A    between atoms: _476  and  _478
REMARK  190  A    between atoms: _478  and  _479
REMARK  191  A    between atoms: _478  and  _481
REMARK  192  A    between atoms: _481  and  _482
REMARK  193  A    between atoms: _484  and  _486
REMARK  194  A    between atoms: _486  and  _487
REMARK  195  A    between atoms: _489  and  _491
REMARK  196  A    between atoms: _491  and  _492
REMARK  197  A    between atoms: _491  and  _494
REMARK  198  A    between atoms: _494  and  _495
REMARK  199  A    between atoms: _498  and  _500
REMARK  200  A    between atoms: _500  and  _501
REMARK  201  A    between atoms: _500  and  _503
REMARK  202  A    between atoms: _503  and  _504
REMARK  203  A    between atoms: _507  and  _509
REMARK  204  A    between atoms: _509  and  _510
REMARK  205  A    between atoms: _509  and  _512
REMARK  206  A    between atoms: _512  and  _513
REMARK  207  A    between atoms: _518  and  _520
REMARK  208  A    between atoms: _520  and  _521
REMARK  209  A    between atoms: _520  and  _523
REMARK  210  A    between atoms: _523  and  _524
REMARK  211  A    between atoms: _524  and  _525
REMARK  212  A    between atoms: _525  and  _526
REMARK  213  A    between atoms: _535  and  _537
REMARK  214  A    between atoms: _537  and  _538
REMARK  215  A    between atoms: _537  and  _540
REMARK  216  A    between atoms: _543  and  _545
REMARK  217  A    between atoms: _545  and  _546
REMARK  218  A    between atoms: _548  and  _550
REMARK  219  A    between atoms: _550  and  _551
REMARK  220  A    between atoms: _554  and  _556
REMARK  221  A    between atoms: _556  and  _557
REMARK  222  A    between atoms: _556  and  _559
REMARK                            x       y       z     vdW  Elec       q    Type
REMARK                         _______ _______ _______ _____ _____    ______ ____
ROOT
ATOM      1  O   HOH     1      20.089  13.588  31.221  0.00  0.00    +0.000 OA
ENDROOT
TORSDOF 0
REMARK  Name = ../refined-set-2016/4h3f/4h3f_pocket.pdb
REMARK  222 active torsions:
REMARK  status: ('A' for Active; 'I' for Inactive)
REMARK    1  A    between atoms: _1  and  _3
REMARK    2  A    between atoms: _3  and  _4
REMARK    3  A    between atoms: _3  and  _6
REMARK    4  A    between atoms: _6  and  _7
REMARK    5  A    between atoms: _7  and  _8
REMARK    6  A    between atoms: _8  and  _9
REMARK    7  A    between atoms: _9  and  _10
REMARK    8  A    between atoms: _14  and  _16
REMARK    9  A    between atoms: _16  and  _17
REMARK   10  A    between atoms: _16  and  _19
REMARK   11  A    between atoms: _19  and  _20
REMARK   12  A    between atoms: _22  and  _24
REMARK   13  A    between atoms: _24  and  _25
REMARK   14  A    between atoms: _27  and  _29
REMARK   15  A    between atoms: _29  and  _30
REMARK   16  A    between atoms: _29  and  _32
REMARK   17  A    between atoms: _32  and  _33
REMARK   18  A    between atoms: _33  and  _34
REMARK   19  A    between atoms: _39  and  _41
REMARK   20  A    between atoms: _41  and  _42
REMARK   21  A    between atoms: _44  and  _46
REMARK   22  A    between atoms: _46  and  _47
REMARK   23  A    between atoms: _46  and  _49
REMARK   24  A    between atoms: _49  and  _50
REMARK   25  A    between atoms: _55  and  _56
REMARK   26  A    between atoms: _58  and  _60
REMARK   27  A    between atoms: _60  and  _61
REMARK   28  A    between atoms: _60  and  _63
REMARK   29  A    between atoms: _63  and  _64
REMARK   30  A    between atoms: _67  and  _69
REMARK   31  A    between atoms: _69  and  _70
REMARK   32  A    between atoms: _69  and  _72
REMARK   33  A    between atoms: _75  and  _77
REMARK   34  A    between atoms: _77  and  _78
REMARK   35  A    between atoms: _77  and  _80
REMARK   36  A    between atoms: _80  and  _81
REMARK   37  A    between atoms: _84  and  _86
REMARK   38  A    between atoms: _86  and  _87
REMARK   39  A    between atoms: _86  and  _89
REMARK   40  A    between atoms: _89  and  _90
REMARK   41  A    between atoms: _93  and  _95
REMARK   42  A    between atoms: _95  and  _96
REMARK   43  A    between atoms: _98  and  _100
REMARK   44  A    between atoms: _100  and  _101
REMARK   45  A    between atoms: _100  and  _103
REMARK   46  A    between atoms: _103  and  _104
REMARK   47  A    between atoms: _106  and  _108
REMARK   48  A    between atoms: _108  and  _109
REMARK   49  A    between atoms: _108  and  _111
REMARK   50  A    between atoms: _111  and  _112
REMARK   51  A    between atoms: _114  and  _116
REMARK   52  A    between atoms: _116  and  _117
REMARK   53  A    between atoms: _116  and  _119
REMARK   54  A    between atoms: _119  and  _120
REMARK   55  A    between atoms: _125  and  _127
REMARK   56  A    between atoms: _127  and  _128
REMARK   57  A    between atoms: _127  and  _130
REMARK   58  A    between atoms: _130  and  _131
REMARK   59  A    between atoms: _137  and  _139
REMARK   60  A    between atoms: _139  and  _140
REMARK   61  A    between atoms: _143  and  _145
REMARK   62  A    between atoms: _145  and  _146
REMARK   63  A    between atoms: _145  and  _148
REMARK   64  A    between atoms: _151  and  _153
REMARK   65  A    between atoms: _153  and  _154
REMARK   66  A    between atoms: _153  and  _156
REMARK   67  A    between atoms: _159  and  _161
REMARK   68  A    between atoms: _161  and  _162
REMARK   69  A    between atoms: _161  and  _164
REMARK   70  A    between atoms: _164  and  _165
REMARK   71  A    between atoms: _170  and  _171
REMARK   72  A    between atoms: _173  and  _175
REMARK   73  A    between atoms: _175  and  _176
REMARK   74  A    between atoms: _175  and  _178
REMARK   75  A    between atoms: _182  and  _183
REMARK   76  A    between atoms: _188  and  _190
REMARK   77  A    between atoms: _190  and  _191
REMARK   78  A    between atoms: _190  and  _193
REMARK   79  A    between atoms: _193  and  _194
REMARK   80  A    between atoms: _199  and  _200
REMARK   81  A    between atoms: _202  and  _204
REMARK   82  A    between atoms: _204  and  _205
REMARK   83  A    between atoms: _204  and  _207
REMARK   84  A    between atoms: _207  and  _208
REMARK   85  A    between atoms: _211  and  _213
REMARK   86  A    between atoms: _213  and  _214
REMARK   87  A    between atoms: _213  and  _216
REMARK   88  A    between atoms: _216  and  _217
REMARK   89  A    between atoms: _217  and  _218
REMARK   90  A    between atoms: _223  and  _225
REMARK   91  A    between atoms: _225  and  _226
REMARK   92  A    between atoms: _228  and  _230
REMARK   93  A    between atoms: _230  and  _231
REMARK   94  A    between atoms: _230  and  _233
REMARK   95  A    between atoms: _233  and  _234
REMARK   96  A    between atoms: _234  and  _235
REMARK   97  A    between atoms: _235  and  _236
REMARK   98  A    between atoms: _236  and  _237
REMARK   99  A    between atoms: _241  and  _243
REMARK  100  A    between atoms: _243  and  _244
REMARK  101  A    between atoms: _243  and  _246
REMARK  102  A    between atoms: _246  and  _247
REMARK  103  A    between atoms: _257  and  _259
REMARK  104  A    between atoms: _259  and  _260
REMARK  105  A    between atoms: _263  and  _265
REMARK  106  A    between atoms: _265  and  _266
REMARK  107  A    between atoms: _265  and  _268
REMARK  108  A    between atoms: _268  and  _269
REMARK  109  A    between atoms: _272  and  _274
REMARK  110  A    between atoms: _274  and  _275
REMARK  111  A    between atoms: _274  and  _277
REMARK  112  A    between atoms: _277  and  _278
REMARK  113  A    between atoms: _281  and  _283
REMARK  114  A    between atoms: _283  and  _284
REMARK  115  A    between atoms: _283  and  _286
REMARK  116  A    between atoms: _286  and  _287
REMARK  117  A    between atoms: _287  and  _288
REMARK  118  A    between atoms: _288  and  _289
REMARK  119  A    between atoms: _289  and  _290
REMARK  120  A    between atoms: _294  and  _296
REMARK  121  A    between atoms: _296  and  _297
REMARK  122  A    between atoms: _296  and  _299
REMARK  123  A    between atoms: _299  and  _300
REMARK  124  A    between atoms: _306  and  _308
REMARK  125  A    between atoms: _308  and  _309
REMARK  126  A    between atoms: _308  and  _311
REMARK  127  A    between atoms: _311  and  _312
REMARK  128  A    between atoms: _318  and  _320
REMARK  129  A    between atoms: _320  and  _321
REMARK  130  A    between atoms: _320  and  _323
REMARK  131  A    between atoms: _323  and  _324
REMARK  132  A    between atoms: _327  and  _329
REMARK  133  A    between atoms: _329  and  _330
REMARK  134  A    between atoms: _329  and  _332
REMARK  135  A    between atoms: _332  and  _333
REMARK  136  A    between atoms: _335  and  _337
REMARK  137  A    between atoms: _337  and  _338
REMARK  138  A    between atoms: _337  and  _340
REMARK  139  A    between atoms: _340  and  _341
REMARK  140  A    between atoms: _351  and  _353
REMARK  141  A    between atoms: _353  and  _354
REMARK  142  A    between atoms: _356  and  _358
REMARK  143  A    between atoms: _358  and  _359
REMARK  144  A    between atoms: _358  and  _361
REMARK  145  A    between atoms: _361  and  _362
REMARK  146  A    between atoms: _365  and  _367
REMARK  147  A    between atoms: _367  and  _368
REMARK  148  A    between atoms: _367  and  _370
REMARK  149  A    between atoms: _370  and  _371
REMARK  150  A    between atoms: _374  and  _376
REMARK  151  A    between atoms: _376  and  _377
REMARK  152  A    between atoms: _379  and  _381
REMARK  153  A    between atoms: _381  and  _382
REMARK  154  A    between atoms: _381  and  _384
REMARK  155  A    between atoms: _384  and  _385
REMARK  156  A    between atoms: _388  and  _390
REMARK  157  A    between atoms: _390  and  _391
REMARK  158  A    between atoms: _390  and  _393
REMARK  159  A    between atoms: _393  and  _394
REMARK  160  A    between atoms: _397  and  _399
REMARK  161  A    between atoms: _399  and  _400
REMARK  162  A    between atoms: _403  and  _405
REMARK  163  A    between atoms: _405  and  _406
REMARK  164  A    between atoms: _405  and  _408
REMARK  165  A    between atoms: _408  and  _409
REMARK  166  A    between atoms: _409  and  _410
REMARK  167  A    between atoms: _410  and  _411
REMARK  168  A    between atoms: _421  and  _422
REMARK  169  A    between atoms: _427  and  _429
REMARK  170  A    between atoms: _429  and  _430
REMARK  171  A    between atoms: _429  and  _432
REMARK  172  A    between atoms: _432  and  _433
REMARK  173  A    between atoms: _436  and  _438
REMARK  174  A    between atoms: _438  and  _439
REMARK  175  A    between atoms: _438  and  _441
REMARK  176  A    between atoms: _441  and  _442
REMARK  177  A    between atoms: _447  and  _448
REMARK  178  A    between atoms: _450  and  _452
REMARK  179  A    between atoms: _452  and  _453
REMARK  180  A    between atoms: _452  and  _455
REMARK  181  A    between atoms: _455  and  _456
REMARK  182  A    between atoms: _459  and  _461
REMARK  183  A    between atoms: _461  and  _462
REMARK  184  A    between atoms: _461  and  _464
REMARK  185  A    between atoms: _467  and  _469
REMARK  186  A    between atoms: _469  and  _470
REMARK  187  A    between atoms: _469  and  _472
REMARK  188  A    between atoms: _472  and  _473
REMARK  189  A    between atoms: _476  and  _478
REMARK  190  A    between atoms: _478  and  _479
REMARK  191  A    between atoms: _478  and  _481
REMARK  192  A    between atoms: _481  and  _482
REMARK  193  A    between atoms: _484  and  _486
REMARK  194  A    between atoms: _486  and  _487
REMARK  195  A    between atoms: _489  and  _491
REMARK  196  A    between atoms: _491  and  _492
REMARK  197  A    between atoms: _491  and  _494
REMARK  198  A    between atoms: _494  and  _495
REMARK  199  A    between atoms: _498  and  _500
REMARK  200  A    between atoms: _500  and  _501
REMARK  201  A    between atoms: _500  and  _503
REMARK  202  A    between atoms: _503  and  _504
REMARK  203  A    between atoms: _507  and  _509
REMARK  204  A    between atoms: _509  and  _510
REMARK  205  A    between atoms: _509  and  _512
REMARK  206  A    between atoms: _512  and  _513
REMARK  207  A    between atoms: _518  and  _520
REMARK  208  A    between atoms: _520  and  _521
REMARK  209  A    between atoms: _520  and  _523
REMARK  210  A    between atoms: _523  and  _524
REMARK  211  A    between atoms: _524  and  _525
REMARK  212  A    between atoms: _525  and  _526
REMARK  213  A    between atoms: _535  and  _537
REMARK  214  A    between atoms: _537  and  _538
REMARK  215  A    between atoms: _537  and  _540
REMARK  216  A    between atoms: _543  and  _545
REMARK  217  A    between atoms: _545  and  _546
REMARK  218  A    between atoms: _548  and  _550
REMARK  219  A    between atoms: _550  and  _551
REMARK  220  A    between atoms: _554  and  _556
REMARK  221  A    between atoms: _556  and  _557
REMARK  222  A    between atoms: _556  and  _559
REMARK                            x       y       z     vdW  Elec       q    Type
REMARK                         _______ _______ _______ _____ _____    ______ ____
ROOT
ATOM      1  O   HOH     1      24.790  15.011  25.967  0.00  0.00    +0.000 OA
ENDROOT
TORSDOF 0
REMARK  Name = ../refined-set-2016/4h3f/4h3f_pocket.pdb
REMARK  222 active torsions:
REMARK  status: ('A' for Active; 'I' for Inactive)
REMARK    1  A    between atoms: _1  and  _3
REMARK    2  A    between atoms: _3  and  _4
REMARK    3  A    between atoms: _3  and  _6
REMARK    4  A    between atoms: _6  and  _7
REMARK    5  A    between atoms: _7  and  _8
REMARK    6  A    between atoms: _8  and  _9
REMARK    7  A    between atoms: _9  and  _10
REMARK    8  A    between atoms: _14  and  _16
REMARK    9  A    between atoms: _16  and  _17
REMARK   10  A    between atoms: _16  and  _19
REMARK   11  A    between atoms: _19  and  _20
REMARK   12  A    between atoms: _22  and  _24
REMARK   13  A    between atoms: _24  and  _25
REMARK   14  A    between atoms: _27  and  _29
REMARK   15  A    between atoms: _29  and  _30
REMARK   16  A    between atoms: _29  and  _32
REMARK   17  A    between atoms: _32  and  _33
REMARK   18  A    between atoms: _33  and  _34
REMARK   19  A    between atoms: _39  and  _41
REMARK   20  A    between atoms: _41  and  _42
REMARK   21  A    between atoms: _44  and  _46
REMARK   22  A    between atoms: _46  and  _47
REMARK   23  A    between atoms: _46  and  _49
REMARK   24  A    between atoms: _49  and  _50
REMARK   25  A    between atoms: _55  and  _56
REMARK   26  A    between atoms: _58  and  _60
REMARK   27  A    between atoms: _60  and  _61
REMARK   28  A    between atoms: _60  and  _63
REMARK   29  A    between atoms: _63  and  _64
REMARK   30  A    between atoms: _67  and  _69
REMARK   31  A    between atoms: _69  and  _70
REMARK   32  A    between atoms: _69  and  _72
REMARK   33  A    between atoms: _75  and  _77
REMARK   34  A    between atoms: _77  and  _78
REMARK   35  A    between atoms: _77  and  _80
REMARK   36  A    between atoms: _80  and  _81
REMARK   37  A    between atoms: _84  and  _86
REMARK   38  A    between atoms: _86  and  _87
REMARK   39  A    between atoms: _86  and  _89
REMARK   40  A    between atoms: _89  and  _90
REMARK   41  A    between atoms: _93  and  _95
REMARK   42  A    between atoms: _95  and  _96
REMARK   43  A    between atoms: _98  and  _100
REMARK   44  A    between atoms: _100  and  _101
REMARK   45  A    between atoms: _100  and  _103
REMARK   46  A    between atoms: _103  and  _104
REMARK   47  A    between atoms: _106  and  _108
REMARK   48  A    between atoms: _108  and  _109
REMARK   49  A    between atoms: _108  and  _111
REMARK   50  A    between atoms: _111  and  _112
REMARK   51  A    between atoms: _114  and  _116
REMARK   52  A    between atoms: _116  and  _117
REMARK   53  A    between atoms: _116  and  _119
REMARK   54  A    between atoms: _119  and  _120
REMARK   55  A    between atoms: _125  and  _127
REMARK   56  A    between atoms: _127  and  _128
REMARK   57  A    between atoms: _127  and  _130
REMARK   58  A    between atoms: _130  and  _131
REMARK   59  A    between atoms: _137  and  _139
REMARK   60  A    between atoms: _139  and  _140
REMARK   61  A    between atoms: _143  and  _145
REMARK   62  A    between atoms: _145  and  _146
REMARK   63  A    between atoms: _145  and  _148
REMARK   64  A    between atoms: _151  and  _153
REMARK   65  A    between atoms: _153  and  _154
REMARK   66  A    between atoms: _153  and  _156
REMARK   67  A    between atoms: _159  and  _161
REMARK   68  A    between atoms: _161  and  _162
REMARK   69  A    between atoms: _161  and  _164
REMARK   70  A    between atoms: _164  and  _165
REMARK   71  A    between atoms: _170  and  _171
REMARK   72  A    between atoms: _173  and  _175
REMARK   73  A    between atoms: _175  and  _176
REMARK   74  A    between atoms: _175  and  _178
REMARK   75  A    between atoms: _182  and  _183
REMARK   76  A    between atoms: _188  and  _190
REMARK   77  A    between atoms: _190  and  _191
REMARK   78  A    between atoms: _190  and  _193
REMARK   79  A    between atoms: _193  and  _194
REMARK   80  A    between atoms: _199  and  _200
REMARK   81  A    between atoms: _202  and  _204
REMARK   82  A    between atoms: _204  and  _205
REMARK   83  A    between atoms: _204  and  _207
REMARK   84  A    between atoms: _207  and  _208
REMARK   85  A    between atoms: _211  and  _213
REMARK   86  A    between atoms: _213  and  _214
REMARK   87  A    between atoms: _213  and  _216
REMARK   88  A    between atoms: _216  and  _217
REMARK   89  A    between atoms: _217  and  _218
REMARK   90  A    between atoms: _223  and  _225
REMARK   91  A    between atoms: _225  and  _226
REMARK   92  A    between atoms: _228  and  _230
REMARK   93  A    between atoms: _230  and  _231
REMARK   94  A    between atoms: _230  and  _233
REMARK   95  A    between atoms: _233  and  _234
REMARK   96  A    between atoms: _234  and  _235
REMARK   97  A    between atoms: _235  and  _236
REMARK   98  A    between atoms: _236  and  _237
REMARK   99  A    between atoms: _241  and  _243
REMARK  100  A    between atoms: _243  and  _244
REMARK  101  A    between atoms: _243  and  _246
REMARK  102  A    between atoms: _246  and  _247
REMARK  103  A    between atoms: _257  and  _259
REMARK  104  A    between atoms: _259  and  _260
REMARK  105  A    between atoms: _263  and  _265
REMARK  106  A    between atoms: _265  and  _266
REMARK  107  A    between atoms: _265  and  _268
REMARK  108  A    between atoms: _268  and  _269
REMARK  109  A    between atoms: _272  and  _274
REMARK  110  A    between atoms: _274  and  _275
REMARK  111  A    between atoms: _274  and  _277
REMARK  112  A    between atoms: _277  and  _278
REMARK  113  A    between atoms: _281  and  _283
REMARK  114  A    between atoms: _283  and  _284
REMARK  115  A    between atoms: _283  and  _286
REMARK  116  A    between atoms: _286  and  _287
REMARK  117  A    between atoms: _287  and  _288
REMARK  118  A    between atoms: _288  and  _289
REMARK  119  A    between atoms: _289  and  _290
REMARK  120  A    between atoms: _294  and  _296
REMARK  121  A    between atoms: _296  and  _297
REMARK  122  A    between atoms: _296  and  _299
REMARK  123  A    between atoms: _299  and  _300
REMARK  124  A    between atoms: _306  and  _308
REMARK  125  A    between atoms: _308  and  _309
REMARK  126  A    between atoms: _308  and  _311
REMARK  127  A    between atoms: _311  and  _312
REMARK  128  A    between atoms: _318  and  _320
REMARK  129  A    between atoms: _320  and  _321
REMARK  130  A    between atoms: _320  and  _323
REMARK  131  A    between atoms: _323  and  _324
REMARK  132  A    between atoms: _327  and  _329
REMARK  133  A    between atoms: _329  and  _330
REMARK  134  A    between atoms: _329  and  _332
REMARK  135  A    between atoms: _332  and  _333
REMARK  136  A    between atoms: _335  and  _337
REMARK  137  A    between atoms: _337  and  _338
REMARK  138  A    between atoms: _337  and  _340
REMARK  139  A    between atoms: _340  and  _341
REMARK  140  A    between atoms: _351  and  _353
REMARK  141  A    between atoms: _353  and  _354
REMARK  142  A    between atoms: _356  and  _358
REMARK  143  A    between atoms: _358  and  _359
REMARK  144  A    between atoms: _358  and  _361
REMARK  145  A    between atoms: _361  and  _362
REMARK  146  A    between atoms: _365  and  _367
REMARK  147  A    between atoms: _367  and  _368
REMARK  148  A    between atoms: _367  and  _370
REMARK  149  A    between atoms: _370  and  _371
REMARK  150  A    between atoms: _374  and  _376
REMARK  151  A    between atoms: _376  and  _377
REMARK  152  A    between atoms: _379  and  _381
REMARK  153  A    between atoms: _381  and  _382
REMARK  154  A    between atoms: _381  and  _384
REMARK  155  A    between atoms: _384  and  _385
REMARK  156  A    between atoms: _388  and  _390
REMARK  157  A    between atoms: _390  and  _391
REMARK  158  A    between atoms: _390  and  _393
REMARK  159  A    between atoms: _393  and  _394
REMARK  160  A    between atoms: _397  and  _399
REMARK  161  A    between atoms: _399  and  _400
REMARK  162  A    between atoms: _403  and  _405
REMARK  163  A    between atoms: _405  and  _406
REMARK  164  A    between atoms: _405  and  _408
REMARK  165  A    between atoms: _408  and  _409
REMARK  166  A    between atoms: _409  and  _410
REMARK  167  A    between atoms: _410  and  _411
REMARK  168  A    between atoms: _421  and  _422
REMARK  169  A    between atoms: _427  and  _429
REMARK  170  A    between atoms: _429  and  _430
REMARK  171  A    between atoms: _429  and  _432
REMARK  172  A    between atoms: _432  and  _433
REMARK  173  A    between atoms: _436  and  _438
REMARK  174  A    between atoms: _438  and  _439
REMARK  175  A    between atoms: _438  and  _441
REMARK  176  A    between atoms: _441  and  _442
REMARK  177  A    between atoms: _447  and  _448
REMARK  178  A    between atoms: _450  and  _452
REMARK  179  A    between atoms: _452  and  _453
REMARK  180  A    between atoms: _452  and  _455
REMARK  181  A    between atoms: _455  and  _456
REMARK  182  A    between atoms: _459  and  _461
REMARK  183  A    between atoms: _461  and  _462
REMARK  184  A    between atoms: _461  and  _464
REMARK  185  A    between atoms: _467  and  _469
REMARK  186  A    between atoms: _469  and  _470
REMARK  187  A    between atoms: _469  and  _472
REMARK  188  A    between atoms: _472  and  _473
REMARK  189  A    between atoms: _476  and  _478
REMARK  190  A    between atoms: _478  and  _479
REMARK  191  A    between atoms: _478  and  _481
REMARK  192  A    between atoms: _481  and  _482
REMARK  193  A    between atoms: _484  and  _486
REMARK  194  A    between atoms: _486  and  _487
REMARK  195  A    between atoms: _489  and  _491
REMARK  196  A    between atoms: _491  and  _492
REMARK  197  A    between atoms: _491  and  _494
REMARK  198  A    between atoms: _494  and  _495
REMARK  199  A    between atoms: _498  and  _500
REMARK  200  A    between atoms: _500  and  _501
REMARK  201  A    between atoms: _500  and  _503
REMARK  202  A    between atoms: _503  and  _504
REMARK  203  A    between atoms: _507  and  _509
REMARK  204  A    between atoms: _509  and  _510
REMARK  205  A    between atoms: _509  and  _512
REMARK  206  A    between atoms: _512  and  _513
REMARK  207  A    between atoms: _518  and  _520
REMARK  208  A    between atoms: _520  and  _521
REMARK  209  A    between atoms: _520  and  _523
REMARK  210  A    between atoms: _523  and  _524
REMARK  211  A    between atoms: _524  and  _525
REMARK  212  A    between atoms: _525  and  _526
REMARK  213  A    between atoms: _535  and  _537
REMARK  214  A    between atoms: _537  and  _538
REMARK  215  A    between atoms: _537  and  _540
REMARK  216  A    between atoms: _543  and  _545
REMARK  217  A    between atoms: _545  and  _546
REMARK  218  A    between atoms: _548  and  _550
REMARK  219  A    between atoms: _550  and  _551
REMARK  220  A    between atoms: _554  and  _556
REMARK  221  A    between atoms: _556  and  _557
REMARK  222  A    between atoms: _556  and  _559
REMARK                            x       y       z     vdW  Elec       q    Type
REMARK                         _______ _______ _______ _____ _____    ______ ____
ROOT
ATOM      1  O   HOH     1      28.361  13.688  24.835  0.00  0.00    +0.000 OA
ENDROOT
TORSDOF 0
REMARK  Name = ../refined-set-2016/4h3f/4h3f_pocket.pdb
REMARK  222 active torsions:
REMARK  status: ('A' for Active; 'I' for Inactive)
REMARK    1  A    between atoms: _1  and  _3
REMARK    2  A    between atoms: _3  and  _4
REMARK    3  A    between atoms: _3  and  _6
REMARK    4  A    between atoms: _6  and  _7
REMARK    5  A    between atoms: _7  and  _8
REMARK    6  A    between atoms: _8  and  _9
REMARK    7  A    between atoms: _9  and  _10
REMARK    8  A    between atoms: _14  and  _16
REMARK    9  A    between atoms: _16  and  _17
REMARK   10  A    between atoms: _16  and  _19
REMARK   11  A    between atoms: _19  and  _20
REMARK   12  A    between atoms: _22  and  _24
REMARK   13  A    between atoms: _24  and  _25
REMARK   14  A    between atoms: _27  and  _29
REMARK   15  A    between atoms: _29  and  _30
REMARK   16  A    between atoms: _29  and  _32
REMARK   17  A    between atoms: _32  and  _33
REMARK   18  A    between atoms: _33  and  _34
REMARK   19  A    between atoms: _39  and  _41
REMARK   20  A    between atoms: _41  and  _42
REMARK   21  A    between atoms: _44  and  _46
REMARK   22  A    between atoms: _46  and  _47
REMARK   23  A    between atoms: _46  and  _49
REMARK   24  A    between atoms: _49  and  _50
REMARK   25  A    between atoms: _55  and  _56
REMARK   26  A    between atoms: _58  and  _60
REMARK   27  A    between atoms: _60  and  _61
REMARK   28  A    between atoms: _60  and  _63
REMARK   29  A    between atoms: _63  and  _64
REMARK   30  A    between atoms: _67  and  _69
REMARK   31  A    between atoms: _69  and  _70
REMARK   32  A    between atoms: _69  and  _72
REMARK   33  A    between atoms: _75  and  _77
REMARK   34  A    between atoms: _77  and  _78
REMARK   35  A    between atoms: _77  and  _80
REMARK   36  A    between atoms: _80  and  _81
REMARK   37  A    between atoms: _84  and  _86
REMARK   38  A    between atoms: _86  and  _87
REMARK   39  A    between atoms: _86  and  _89
REMARK   40  A    between atoms: _89  and  _90
REMARK   41  A    between atoms: _93  and  _95
REMARK   42  A    between atoms: _95  and  _96
REMARK   43  A    between atoms: _98  and  _100
REMARK   44  A    between atoms: _100  and  _101
REMARK   45  A    between atoms: _100  and  _103
REMARK   46  A    between atoms: _103  and  _104
REMARK   47  A    between atoms: _106  and  _108
REMARK   48  A    between atoms: _108  and  _109
REMARK   49  A    between atoms: _108  and  _111
REMARK   50  A    between atoms: _111  and  _112
REMARK   51  A    between atoms: _114  and  _116
REMARK   52  A    between atoms: _116  and  _117
REMARK   53  A    between atoms: _116  and  _119
REMARK   54  A    between atoms: _119  and  _120
REMARK   55  A    between atoms: _125  and  _127
REMARK   56  A    between atoms: _127  and  _128
REMARK   57  A    between atoms: _127  and  _130
REMARK   58  A    between atoms: _130  and  _131
REMARK   59  A    between atoms: _137  and  _139
REMARK   60  A    between atoms: _139  and  _140
REMARK   61  A    between atoms: _143  and  _145
REMARK   62  A    between atoms: _145  and  _146
REMARK   63  A    between atoms: _145  and  _148
REMARK   64  A    between atoms: _151  and  _153
REMARK   65  A    between atoms: _153  and  _154
REMARK   66  A    between atoms: _153  and  _156
REMARK   67  A    between atoms: _159  and  _161
REMARK   68  A    between atoms: _161  and  _162
REMARK   69  A    between atoms: _161  and  _164
REMARK   70  A    between atoms: _164  and  _165
REMARK   71  A    between atoms: _170  and  _171
REMARK   72  A    between atoms: _173  and  _175
REMARK   73  A    between atoms: _175  and  _176
REMARK   74  A    between atoms: _175  and  _178
REMARK   75  A    between atoms: _182  and  _183
REMARK   76  A    between atoms: _188  and  _190
REMARK   77  A    between atoms: _190  and  _191
REMARK   78  A    between atoms: _190  and  _193
REMARK   79  A    between atoms: _193  and  _194
REMARK   80  A    between atoms: _199  and  _200
REMARK   81  A    between atoms: _202  and  _204
REMARK   82  A    between atoms: _204  and  _205
REMARK   83  A    between atoms: _204  and  _207
REMARK   84  A    between atoms: _207  and  _208
REMARK   85  A    between atoms: _211  and  _213
REMARK   86  A    between atoms: _213  and  _214
REMARK   87  A    between atoms: _213  and  _216
REMARK   88  A    between atoms: _216  and  _217
REMARK   89  A    between atoms: _217  and  _218
REMARK   90  A    between atoms: _223  and  _225
REMARK   91  A    between atoms: _225  and  _226
REMARK   92  A    between atoms: _228  and  _230
REMARK   93  A    between atoms: _230  and  _231
REMARK   94  A    between atoms: _230  and  _233
REMARK   95  A    between atoms: _233  and  _234
REMARK   96  A    between atoms: _234  and  _235
REMARK   97  A    between atoms: _235  and  _236
REMARK   98  A    between atoms: _236  and  _237
REMARK   99  A    between atoms: _241  and  _243
REMARK  100  A    between atoms: _243  and  _244
REMARK  101  A    between atoms: _243  and  _246
REMARK  102  A    between atoms: _246  and  _247
REMARK  103  A    between atoms: _257  and  _259
REMARK  104  A    between atoms: _259  and  _260
REMARK  105  A    between atoms: _263  and  _265
REMARK  106  A    between atoms: _265  and  _266
REMARK  107  A    between atoms: _265  and  _268
REMARK  108  A    between atoms: _268  and  _269
REMARK  109  A    between atoms: _272  and  _274
REMARK  110  A    between atoms: _274  and  _275
REMARK  111  A    between atoms: _274  and  _277
REMARK  112  A    between atoms: _277  and  _278
REMARK  113  A    between atoms: _281  and  _283
REMARK  114  A    between atoms: _283  and  _284
REMARK  115  A    between atoms: _283  and  _286
REMARK  116  A    between atoms: _286  and  _287
REMARK  117  A    between atoms: _287  and  _288
REMARK  118  A    between atoms: _288  and  _289
REMARK  119  A    between atoms: _289  and  _290
REMARK  120  A    between atoms: _294  and  _296
REMARK  121  A    between atoms: _296  and  _297
REMARK  122  A    between atoms: _296  and  _299
REMARK  123  A    between atoms: _299  and  _300
REMARK  124  A    between atoms: _306  and  _308
REMARK  125  A    between atoms: _308  and  _309
REMARK  126  A    between atoms: _308  and  _311
REMARK  127  A    between atoms: _311  and  _312
REMARK  128  A    between atoms: _318  and  _320
REMARK  129  A    between atoms: _320  and  _321
REMARK  130  A    between atoms: _320  and  _323
REMARK  131  A    between atoms: _323  and  _324
REMARK  132  A    between atoms: _327  and  _329
REMARK  133  A    between atoms: _329  and  _330
REMARK  134  A    between atoms: _329  and  _332
REMARK  135  A    between atoms: _332  and  _333
REMARK  136  A    between atoms: _335  and  _337
REMARK  137  A    between atoms: _337  and  _338
REMARK  138  A    between atoms: _337  and  _340
REMARK  139  A    between atoms: _340  and  _341
REMARK  140  A    between atoms: _351  and  _353
REMARK  141  A    between atoms: _353  and  _354
REMARK  142  A    between atoms: _356  and  _358
REMARK  143  A    between atoms: _358  and  _359
REMARK  144  A    between atoms: _358  and  _361
REMARK  145  A    between atoms: _361  and  _362
REMARK  146  A    between atoms: _365  and  _367
REMARK  147  A    between atoms: _367  and  _368
REMARK  148  A    between atoms: _367  and  _370
REMARK  149  A    between atoms: _370  and  _371
REMARK  150  A    between atoms: _374  and  _376
REMARK  151  A    between atoms: _376  and  _377
REMARK  152  A    between atoms: _379  and  _381
REMARK  153  A    between atoms: _381  and  _382
REMARK  154  A    between atoms: _381  and  _384
REMARK  155  A    between atoms: _384  and  _385
REMARK  156  A    between atoms: _388  and  _390
REMARK  157  A    between atoms: _390  and  _391
REMARK  158  A    between atoms: _390  and  _393
REMARK  159  A    between atoms: _393  and  _394
REMARK  160  A    between atoms: _397  and  _399
REMARK  161  A    between atoms: _399  and  _400
REMARK  162  A    between atoms: _403  and  _405
REMARK  163  A    between atoms: _405  and  _406
REMARK  164  A    between atoms: _405  and  _408
REMARK  165  A    between atoms: _408  and  _409
REMARK  166  A    between atoms: _409  and  _410
REMARK  167  A    between atoms: _410  and  _411
REMARK  168  A    between atoms: _421  and  _422
REMARK  169  A    between atoms: _427  and  _429
REMARK  170  A    between atoms: _429  and  _430
REMARK  171  A    between atoms: _429  and  _432
REMARK  172  A    between atoms: _432  and  _433
REMARK  173  A    between atoms: _436  and  _438
REMARK  174  A    between atoms: _438  and  _439
REMARK  175  A    between atoms: _438  and  _441
REMARK  176  A    between atoms: _441  and  _442
REMARK  177  A    between atoms: _447  and  _448
REMARK  178  A    between atoms: _450  and  _452
REMARK  179  A    between atoms: _452  and  _453
REMARK  180  A    between atoms: _452  and  _455
REMARK  181  A    between atoms: _455  and  _456
REMARK  182  A    between atoms: _459  and  _461
REMARK  183  A    between atoms: _461  and  _462
REMARK  184  A    between atoms: _461  and  _464
REMARK  185  A    between atoms: _467  and  _469
REMARK  186  A    between atoms: _469  and  _470
REMARK  187  A    between atoms: _469  and  _472
REMARK  188  A    between atoms: _472  and  _473
REMARK  189  A    between atoms: _476  and  _478
REMARK  190  A    between atoms: _478  and  _479
REMARK  191  A    between atoms: _478  and  _481
REMARK  192  A    between atoms: _481  and  _482
REMARK  193  A    between atoms: _484  and  _486
REMARK  194  A    between atoms: _486  and  _487
REMARK  195  A    between atoms: _489  and  _491
REMARK  196  A    between atoms: _491  and  _492
REMARK  197  A    between atoms: _491  and  _494
REMARK  198  A    between atoms: _494  and  _495
REMARK  199  A    between atoms: _498  and  _500
REMARK  200  A    between atoms: _500  and  _501
REMARK  201  A    between atoms: _500  and  _503
REMARK  202  A    between atoms: _503  and  _504
REMARK  203  A    between atoms: _507  and  _509
REMARK  204  A    between atoms: _509  and  _510
REMARK  205  A    between atoms: _509  and  _512
REMARK  206  A    between atoms: _512  and  _513
REMARK  207  A    between atoms: _518  and  _520
REMARK  208  A    between atoms: _520  and  _521
REMARK  209  A    between atoms: _520  and  _523
REMARK  210  A    between atoms: _523  and  _524
REMARK  211  A    between atoms: _524  and  _525
REMARK  212  A    between atoms: _525  and  _526
REMARK  213  A    between atoms: _535  and  _537
REMARK  214  A    between atoms: _537  and  _538
REMARK  215  A    between atoms: _537  and  _540
REMARK  216  A    between atoms: _543  and  _545
REMARK  217  A    between atoms: _545  and  _546
REMARK  218  A    between atoms: _548  and  _550
REMARK  219  A    between atoms: _550  and  _551
REMARK  220  A    between atoms: _554  and  _556
REMARK  221  A    between atoms: _556  and  _557
REMARK  222  A    between atoms: _556  and  _559
REMARK                            x       y       z     vdW  Elec       q    Type
REMARK                         _______ _______ _______ _____ _____    ______ ____
ROOT
ATOM      1  O   HOH     1      21.495  13.525  28.835  0.00  0.00    +0.000 OA
ENDROOT
TORSDOF 0
REMARK  Name = ../refined-set-2016/4h3f/4h3f_pocket.pdb
REMARK  222 active torsions:
REMARK  status: ('A' for Active; 'I' for Inactive)
REMARK    1  A    between atoms: _1  and  _3
REMARK    2  A    between atoms: _3  and  _4
REMARK    3  A    between atoms: _3  and  _6
REMARK    4  A    between atoms: _6  and  _7
REMARK    5  A    between atoms: _7  and  _8
REMARK    6  A    between atoms: _8  and  _9
REMARK    7  A    between atoms: _9  and  _10
REMARK    8  A    between atoms: _14  and  _16
REMARK    9  A    between atoms: _16  and  _17
REMARK   10  A    between atoms: _16  and  _19
REMARK   11  A    between atoms: _19  and  _20
REMARK   12  A    between atoms: _22  and  _24
REMARK   13  A    between atoms: _24  and  _25
REMARK   14  A    between atoms: _27  and  _29
REMARK   15  A    between atoms: _29  and  _30
REMARK   16  A    between atoms: _29  and  _32
REMARK   17  A    between atoms: _32  and  _33
REMARK   18  A    between atoms: _33  and  _34
REMARK   19  A    between atoms: _39  and  _41
REMARK   20  A    between atoms: _41  and  _42
REMARK   21  A    between atoms: _44  and  _46
REMARK   22  A    between atoms: _46  and  _47
REMARK   23  A    between atoms: _46  and  _49
REMARK   24  A    between atoms: _49  and  _50
REMARK   25  A    between atoms: _55  and  _56
REMARK   26  A    between atoms: _58  and  _60
REMARK   27  A    between atoms: _60  and  _61
REMARK   28  A    between atoms: _60  and  _63
REMARK   29  A    between atoms: _63  and  _64
REMARK   30  A    between atoms: _67  and  _69
REMARK   31  A    between atoms: _69  and  _70
REMARK   32  A    between atoms: _69  and  _72
REMARK   33  A    between atoms: _75  and  _77
REMARK   34  A    between atoms: _77  and  _78
REMARK   35  A    between atoms: _77  and  _80
REMARK   36  A    between atoms: _80  and  _81
REMARK   37  A    between atoms: _84  and  _86
REMARK   38  A    between atoms: _86  and  _87
REMARK   39  A    between atoms: _86  and  _89
REMARK   40  A    between atoms: _89  and  _90
REMARK   41  A    between atoms: _93  and  _95
REMARK   42  A    between atoms: _95  and  _96
REMARK   43  A    between atoms: _98  and  _100
REMARK   44  A    between atoms: _100  and  _101
REMARK   45  A    between atoms: _100  and  _103
REMARK   46  A    between atoms: _103  and  _104
REMARK   47  A    between atoms: _106  and  _108
REMARK   48  A    between atoms: _108  and  _109
REMARK   49  A    between atoms: _108  and  _111
REMARK   50  A    between atoms: _111  and  _112
REMARK   51  A    between atoms: _114  and  _116
REMARK   52  A    between atoms: _116  and  _117
REMARK   53  A    between atoms: _116  and  _119
REMARK   54  A    between atoms: _119  and  _120
REMARK   55  A    between atoms: _125  and  _127
REMARK   56  A    between atoms: _127  and  _128
REMARK   57  A    between atoms: _127  and  _130
REMARK   58  A    between atoms: _130  and  _131
REMARK   59  A    between atoms: _137  and  _139
REMARK   60  A    between atoms: _139  and  _140
REMARK   61  A    between atoms: _143  and  _145
REMARK   62  A    between atoms: _145  and  _146
REMARK   63  A    between atoms: _145  and  _148
REMARK   64  A    between atoms: _151  and  _153
REMARK   65  A    between atoms: _153  and  _154
REMARK   66  A    between atoms: _153  and  _156
REMARK   67  A    between atoms: _159  and  _161
REMARK   68  A    between atoms: _161  and  _162
REMARK   69  A    between atoms: _161  and  _164
REMARK   70  A    between atoms: _164  and  _165
REMARK   71  A    between atoms: _170  and  _171
REMARK   72  A    between atoms: _173  and  _175
REMARK   73  A    between atoms: _175  and  _176
REMARK   74  A    between atoms: _175  and  _178
REMARK   75  A    between atoms: _182  and  _183
REMARK   76  A    between atoms: _188  and  _190
REMARK   77  A    between atoms: _190  and  _191
REMARK   78  A    between atoms: _190  and  _193
REMARK   79  A    between atoms: _193  and  _194
REMARK   80  A    between atoms: _199  and  _200
REMARK   81  A    between atoms: _202  and  _204
REMARK   82  A    between atoms: _204  and  _205
REMARK   83  A    between atoms: _204  and  _207
REMARK   84  A    between atoms: _207  and  _208
REMARK   85  A    between atoms: _211  and  _213
REMARK   86  A    between atoms: _213  and  _214
REMARK   87  A    between atoms: _213  and  _216
REMARK   88  A    between atoms: _216  and  _217
REMARK   89  A    between atoms: _217  and  _218
REMARK   90  A    between atoms: _223  and  _225
REMARK   91  A    between atoms: _225  and  _226
REMARK   92  A    between atoms: _228  and  _230
REMARK   93  A    between atoms: _230  and  _231
REMARK   94  A    between atoms: _230  and  _233
REMARK   95  A    between atoms: _233  and  _234
REMARK   96  A    between atoms: _234  and  _235
REMARK   97  A    between atoms: _235  and  _236
REMARK   98  A    between atoms: _236  and  _237
REMARK   99  A    between atoms: _241  and  _243
REMARK  100  A    between atoms: _243  and  _244
REMARK  101  A    between atoms: _243  and  _246
REMARK  102  A    between atoms: _246  and  _247
REMARK  103  A    between atoms: _257  and  _259
REMARK  104  A    between atoms: _259  and  _260
REMARK  105  A    between atoms: _263  and  _265
REMARK  106  A    between atoms: _265  and  _266
REMARK  107  A    between atoms: _265  and  _268
REMARK  108  A    between atoms: _268  and  _269
REMARK  109  A    between atoms: _272  and  _274
REMARK  110  A    between atoms: _274  and  _275
REMARK  111  A    between atoms: _274  and  _277
REMARK  112  A    between atoms: _277  and  _278
REMARK  113  A    between atoms: _281  and  _283
REMARK  114  A    between atoms: _283  and  _284
REMARK  115  A    between atoms: _283  and  _286
REMARK  116  A    between atoms: _286  and  _287
REMARK  117  A    between atoms: _287  and  _288
REMARK  118  A    between atoms: _288  and  _289
REMARK  119  A    between atoms: _289  and  _290
REMARK  120  A    between atoms: _294  and  _296
REMARK  121  A    between atoms: _296  and  _297
REMARK  122  A    between atoms: _296  and  _299
REMARK  123  A    between atoms: _299  and  _300
REMARK  124  A    between atoms: _306  and  _308
REMARK  125  A    between atoms: _308  and  _309
REMARK  126  A    between atoms: _308  and  _311
REMARK  127  A    between atoms: _311  and  _312
REMARK  128  A    between atoms: _318  and  _320
REMARK  129  A    between atoms: _320  and  _321
REMARK  130  A    between atoms: _320  and  _323
REMARK  131  A    between atoms: _323  and  _324
REMARK  132  A    between atoms: _327  and  _329
REMARK  133  A    between atoms: _329  and  _330
REMARK  134  A    between atoms: _329  and  _332
REMARK  135  A    between atoms: _332  and  _333
REMARK  136  A    between atoms: _335  and  _337
REMARK  137  A    between atoms: _337  and  _338
REMARK  138  A    between atoms: _337  and  _340
REMARK  139  A    between atoms: _340  and  _341
REMARK  140  A    between atoms: _351  and  _353
REMARK  141  A    between atoms: _353  and  _354
REMARK  142  A    between atoms: _356  and  _358
REMARK  143  A    between atoms: _358  and  _359
REMARK  144  A    between atoms: _358  and  _361
REMARK  145  A    between atoms: _361  and  _362
REMARK  146  A    between atoms: _365  and  _367
REMARK  147  A    between atoms: _367  and  _368
REMARK  148  A    between atoms: _367  and  _370
REMARK  149  A    between atoms: _370  and  _371
REMARK  150  A    between atoms: _374  and  _376
REMARK  151  A    between atoms: _376  and  _377
REMARK  152  A    between atoms: _379  and  _381
REMARK  153  A    between atoms: _381  and  _382
REMARK  154  A    between atoms: _381  and  _384
REMARK  155  A    between atoms: _384  and  _385
REMARK  156  A    between atoms: _388  and  _390
REMARK  157  A    between atoms: _390  and  _391
REMARK  158  A    between atoms: _390  and  _393
REMARK  159  A    between atoms: _393  and  _394
REMARK  160  A    between atoms: _397  and  _399
REMARK  161  A    between atoms: _399  and  _400
REMARK  162  A    between atoms: _403  and  _405
REMARK  163  A    between atoms: _405  and  _406
REMARK  164  A    between atoms: _405  and  _408
REMARK  165  A    between atoms: _408  and  _409
REMARK  166  A    between atoms: _409  and  _410
REMARK  167  A    between atoms: _410  and  _411
REMARK  168  A    between atoms: _421  and  _422
REMARK  169  A    between atoms: _427  and  _429
REMARK  170  A    between atoms: _429  and  _430
REMARK  171  A    between atoms: _429  and  _432
REMARK  172  A    between atoms: _432  and  _433
REMARK  173  A    between atoms: _436  and  _438
REMARK  174  A    between atoms: _438  and  _439
REMARK  175  A    between atoms: _438  and  _441
REMARK  176  A    between atoms: _441  and  _442
REMARK  177  A    between atoms: _447  and  _448
REMARK  178  A    between atoms: _450  and  _452
REMARK  179  A    between atoms: _452  and  _453
REMARK  180  A    between atoms: _452  and  _455
REMARK  181  A    between atoms: _455  and  _456
REMARK  182  A    between atoms: _459  and  _461
REMARK  183  A    between atoms: _461  and  _462
REMARK  184  A    between atoms: _461  and  _464
REMARK  185  A    between atoms: _467  and  _469
REMARK  186  A    between atoms: _469  and  _470
REMARK  187  A    between atoms: _469  and  _472
REMARK  188  A    between atoms: _472  and  _473
REMARK  189  A    between atoms: _476  and  _478
REMARK  190  A    between atoms: _478  and  _479
REMARK  191  A    between atoms: _478  and  _481
REMARK  192  A    between atoms: _481  and  _482
REMARK  193  A    between atoms: _484  and  _486
REMARK  194  A    between atoms: _486  and  _487
REMARK  195  A    between atoms: _489  and  _491
REMARK  196  A    between atoms: _491  and  _492
REMARK  197  A    between atoms: _491  and  _494
REMARK  198  A    between atoms: _494  and  _495
REMARK  199  A    between atoms: _498  and  _500
REMARK  200  A    between atoms: _500  and  _501
REMARK  201  A    between atoms: _500  and  _503
REMARK  202  A    between atoms: _503  and  _504
REMARK  203  A    between atoms: _507  and  _509
REMARK  204  A    between atoms: _509  and  _510
REMARK  205  A    between atoms: _509  and  _512
REMARK  206  A    between atoms: _512  and  _513
REMARK  207  A    between atoms: _518  and  _520
REMARK  208  A    between atoms: _520  and  _521
REMARK  209  A    between atoms: _520  and  _523
REMARK  210  A    between atoms: _523  and  _524
REMARK  211  A    between atoms: _524  and  _525
REMARK  212  A    between atoms: _525  and  _526
REMARK  213  A    between atoms: _535  and  _537
REMARK  214  A    between atoms: _537  and  _538
REMARK  215  A    between atoms: _537  and  _540
REMARK  216  A    between atoms: _543  and  _545
REMARK  217  A    between atoms: _545  and  _546
REMARK  218  A    between atoms: _548  and  _550
REMARK  219  A    between atoms: _550  and  _551
REMARK  220  A    between atoms: _554  and  _556
REMARK  221  A    between atoms: _556  and  _557
REMARK  222  A    between atoms: _556  and  _559
REMARK                            x       y       z     vdW  Elec       q    Type
REMARK                         _______ _______ _______ _____ _____    ______ ____
ROOT
ATOM      1  O   HOH     1      19.774  10.383  26.080  0.00  0.00    +0.000 OA
ENDROOT
TORSDOF 0
REMARK  Name = ../refined-set-2016/4h3f/4h3f_pocket.pdb
REMARK  222 active torsions:
REMARK  status: ('A' for Active; 'I' for Inactive)
REMARK    1  A    between atoms: _1  and  _3
REMARK    2  A    between atoms: _3  and  _4
REMARK    3  A    between atoms: _3  and  _6
REMARK    4  A    between atoms: _6  and  _7
REMARK    5  A    between atoms: _7  and  _8
REMARK    6  A    between atoms: _8  and  _9
REMARK    7  A    between atoms: _9  and  _10
REMARK    8  A    between atoms: _14  and  _16
REMARK    9  A    between atoms: _16  and  _17
REMARK   10  A    between atoms: _16  and  _19
REMARK   11  A    between atoms: _19  and  _20
REMARK   12  A    between atoms: _22  and  _24
REMARK   13  A    between atoms: _24  and  _25
REMARK   14  A    between atoms: _27  and  _29
REMARK   15  A    between atoms: _29  and  _30
REMARK   16  A    between atoms: _29  and  _32
REMARK   17  A    between atoms: _32  and  _33
REMARK   18  A    between atoms: _33  and  _34
REMARK   19  A    between atoms: _39  and  _41
REMARK   20  A    between atoms: _41  and  _42
REMARK   21  A    between atoms: _44  and  _46
REMARK   22  A    between atoms: _46  and  _47
REMARK   23  A    between atoms: _46  and  _49
REMARK   24  A    between atoms: _49  and  _50
REMARK   25  A    between atoms: _55  and  _56
REMARK   26  A    between atoms: _58  and  _60
REMARK   27  A    between atoms: _60  and  _61
REMARK   28  A    between atoms: _60  and  _63
REMARK   29  A    between atoms: _63  and  _64
REMARK   30  A    between atoms: _67  and  _69
REMARK   31  A    between atoms: _69  and  _70
REMARK   32  A    between atoms: _69  and  _72
REMARK   33  A    between atoms: _75  and  _77
REMARK   34  A    between atoms: _77  and  _78
REMARK   35  A    between atoms: _77  and  _80
REMARK   36  A    between atoms: _80  and  _81
REMARK   37  A    between atoms: _84  and  _86
REMARK   38  A    between atoms: _86  and  _87
REMARK   39  A    between atoms: _86  and  _89
REMARK   40  A    between atoms: _89  and  _90
REMARK   41  A    between atoms: _93  and  _95
REMARK   42  A    between atoms: _95  and  _96
REMARK   43  A    between atoms: _98  and  _100
REMARK   44  A    between atoms: _100  and  _101
REMARK   45  A    between atoms: _100  and  _103
REMARK   46  A    between atoms: _103  and  _104
REMARK   47  A    between atoms: _106  and  _108
REMARK   48  A    between atoms: _108  and  _109
REMARK   49  A    between atoms: _108  and  _111
REMARK   50  A    between atoms: _111  and  _112
REMARK   51  A    between atoms: _114  and  _116
REMARK   52  A    between atoms: _116  and  _117
REMARK   53  A    between atoms: _116  and  _119
REMARK   54  A    between atoms: _119  and  _120
REMARK   55  A    between atoms: _125  and  _127
REMARK   56  A    between atoms: _127  and  _128
REMARK   57  A    between atoms: _127  and  _130
REMARK   58  A    between atoms: _130  and  _131
REMARK   59  A    between atoms: _137  and  _139
REMARK   60  A    between atoms: _139  and  _140
REMARK   61  A    between atoms: _143  and  _145
REMARK   62  A    between atoms: _145  and  _146
REMARK   63  A    between atoms: _145  and  _148
REMARK   64  A    between atoms: _151  and  _153
REMARK   65  A    between atoms: _153  and  _154
REMARK   66  A    between atoms: _153  and  _156
REMARK   67  A    between atoms: _159  and  _161
REMARK   68  A    between atoms: _161  and  _162
REMARK   69  A    between atoms: _161  and  _164
REMARK   70  A    between atoms: _164  and  _165
REMARK   71  A    between atoms: _170  and  _171
REMARK   72  A    between atoms: _173  and  _175
REMARK   73  A    between atoms: _175  and  _176
REMARK   74  A    between atoms: _175  and  _178
REMARK   75  A    between atoms: _182  and  _183
REMARK   76  A    between atoms: _188  and  _190
REMARK   77  A    between atoms: _190  and  _191
REMARK   78  A    between atoms: _190  and  _193
REMARK   79  A    between atoms: _193  and  _194
REMARK   80  A    between atoms: _199  and  _200
REMARK   81  A    between atoms: _202  and  _204
REMARK   82  A    between atoms: _204  and  _205
REMARK   83  A    between atoms: _204  and  _207
REMARK   84  A    between atoms: _207  and  _208
REMARK   85  A    between atoms: _211  and  _213
REMARK   86  A    between atoms: _213  and  _214
REMARK   87  A    between atoms: _213  and  _216
REMARK   88  A    between atoms: _216  and  _217
REMARK   89  A    between atoms: _217  and  _218
REMARK   90  A    between atoms: _223  and  _225
REMARK   91  A    between atoms: _225  and  _226
REMARK   92  A    between atoms: _228  and  _230
REMARK   93  A    between atoms: _230  and  _231
REMARK   94  A    between atoms: _230  and  _233
REMARK   95  A    between atoms: _233  and  _234
REMARK   96  A    between atoms: _234  and  _235
REMARK   97  A    between atoms: _235  and  _236
REMARK   98  A    between atoms: _236  and  _237
REMARK   99  A    between atoms: _241  and  _243
REMARK  100  A    between atoms: _243  and  _244
REMARK  101  A    between atoms: _243  and  _246
REMARK  102  A    between atoms: _246  and  _247
REMARK  103  A    between atoms: _257  and  _259
REMARK  104  A    between atoms: _259  and  _260
REMARK  105  A    between atoms: _263  and  _265
REMARK  106  A    between atoms: _265  and  _266
REMARK  107  A    between atoms: _265  and  _268
REMARK  108  A    between atoms: _268  and  _269
REMARK  109  A    between atoms: _272  and  _274
REMARK  110  A    between atoms: _274  and  _275
REMARK  111  A    between atoms: _274  and  _277
REMARK  112  A    between atoms: _277  and  _278
REMARK  113  A    between atoms: _281  and  _283
REMARK  114  A    between atoms: _283  and  _284
REMARK  115  A    between atoms: _283  and  _286
REMARK  116  A    between atoms: _286  and  _287
REMARK  117  A    between atoms: _287  and  _288
REMARK  118  A    between atoms: _288  and  _289
REMARK  119  A    between atoms: _289  and  _290
REMARK  120  A    between atoms: _294  and  _296
REMARK  121  A    between atoms: _296  and  _297
REMARK  122  A    between atoms: _296  and  _299
REMARK  123  A    between atoms: _299  and  _300
REMARK  124  A    between atoms: _306  and  _308
REMARK  125  A    between atoms: _308  and  _309
REMARK  126  A    between atoms: _308  and  _311
REMARK  127  A    between atoms: _311  and  _312
REMARK  128  A    between atoms: _318  and  _320
REMARK  129  A    between atoms: _320  and  _321
REMARK  130  A    between atoms: _320  and  _323
REMARK  131  A    between atoms: _323  and  _324
REMARK  132  A    between atoms: _327  and  _329
REMARK  133  A    between atoms: _329  and  _330
REMARK  134  A    between atoms: _329  and  _332
REMARK  135  A    between atoms: _332  and  _333
REMARK  136  A    between atoms: _335  and  _337
REMARK  137  A    between atoms: _337  and  _338
REMARK  138  A    between atoms: _337  and  _340
REMARK  139  A    between atoms: _340  and  _341
REMARK  140  A    between atoms: _351  and  _353
REMARK  141  A    between atoms: _353  and  _354
REMARK  142  A    between atoms: _356  and  _358
REMARK  143  A    between atoms: _358  and  _359
REMARK  144  A    between atoms: _358  and  _361
REMARK  145  A    between atoms: _361  and  _362
REMARK  146  A    between atoms: _365  and  _367
REMARK  147  A    between atoms: _367  and  _368
REMARK  148  A    between atoms: _367  and  _370
REMARK  149  A    between atoms: _370  and  _371
REMARK  150  A    between atoms: _374  and  _376
REMARK  151  A    between atoms: _376  and  _377
REMARK  152  A    between atoms: _379  and  _381
REMARK  153  A    between atoms: _381  and  _382
REMARK  154  A    between atoms: _381  and  _384
REMARK  155  A    between atoms: _384  and  _385
REMARK  156  A    between atoms: _388  and  _390
REMARK  157  A    between atoms: _390  and  _391
REMARK  158  A    between atoms: _390  and  _393
REMARK  159  A    between atoms: _393  and  _394
REMARK  160  A    between atoms: _397  and  _399
REMARK  161  A    between atoms: _399  and  _400
REMARK  162  A    between atoms: _403  and  _405
REMARK  163  A    between atoms: _405  and  _406
REMARK  164  A    between atoms: _405  and  _408
REMARK  165  A    between atoms: _408  and  _409
REMARK  166  A    between atoms: _409  and  _410
REMARK  167  A    between atoms: _410  and  _411
REMARK  168  A    between atoms: _421  and  _422
REMARK  169  A    between atoms: _427  and  _429
REMARK  170  A    between atoms: _429  and  _430
REMARK  171  A    between atoms: _429  and  _432
REMARK  172  A    between atoms: _432  and  _433
REMARK  173  A    between atoms: _436  and  _438
REMARK  174  A    between atoms: _438  and  _439
REMARK  175  A    between atoms: _438  and  _441
REMARK  176  A    between atoms: _441  and  _442
REMARK  177  A    between atoms: _447  and  _448
REMARK  178  A    between atoms: _450  and  _452
REMARK  179  A    between atoms: _452  and  _453
REMARK  180  A    between atoms: _452  and  _455
REMARK  181  A    between atoms: _455  and  _456
REMARK  182  A    between atoms: _459  and  _461
REMARK  183  A    between atoms: _461  and  _462
REMARK  184  A    between atoms: _461  and  _464
REMARK  185  A    between atoms: _467  and  _469
REMARK  186  A    between atoms: _469  and  _470
REMARK  187  A    between atoms: _469  and  _472
REMARK  188  A    between atoms: _472  and  _473
REMARK  189  A    between atoms: _476  and  _478
REMARK  190  A    between atoms: _478  and  _479
REMARK  191  A    between atoms: _478  and  _481
REMARK  192  A    between atoms: _481  and  _482
REMARK  193  A    between atoms: _484  and  _486
REMARK  194  A    between atoms: _486  and  _487
REMARK  195  A    between atoms: _489  and  _491
REMARK  196  A    between atoms: _491  and  _492
REMARK  197  A    between atoms: _491  and  _494
REMARK  198  A    between atoms: _494  and  _495
REMARK  199  A    between atoms: _498  and  _500
REMARK  200  A    between atoms: _500  and  _501
REMARK  201  A    between atoms: _500  and  _503
REMARK  202  A    between atoms: _503  and  _504
REMARK  203  A    between atoms: _507  and  _509
REMARK  204  A    between atoms: _509  and  _510
REMARK  205  A    between atoms: _509  and  _512
REMARK  206  A    between atoms: _512  and  _513
REMARK  207  A    between atoms: _518  and  _520
REMARK  208  A    between atoms: _520  and  _521
REMARK  209  A    between atoms: _520  and  _523
REMARK  210  A    between atoms: _523  and  _524
REMARK  211  A    between atoms: _524  and  _525
REMARK  212  A    between atoms: _525  and  _526
REMARK  213  A    between atoms: _535  and  _537
REMARK  214  A    between atoms: _537  and  _538
REMARK  215  A    between atoms: _537  and  _540
REMARK  216  A    between atoms: _543  and  _545
REMARK  217  A    between atoms: _545  and  _546
REMARK  218  A    between atoms: _548  and  _550
REMARK  219  A    between atoms: _550  and  _551
REMARK  220  A    between atoms: _554  and  _556
REMARK  221  A    between atoms: _556  and  _557
REMARK  222  A    between atoms: _556  and  _559
REMARK                            x       y       z     vdW  Elec       q    Type
REMARK                         _______ _______ _______ _____ _____    ______ ____
ROOT
ATOM      1  O   HOH     1      33.098   6.687  17.381  0.00  0.00    +0.000 OA
ENDROOT
TORSDOF 0
REMARK  Name = ../refined-set-2016/4h3f/4h3f_pocket.pdb
REMARK  222 active torsions:
REMARK  status: ('A' for Active; 'I' for Inactive)
REMARK    1  A    between atoms: _1  and  _3
REMARK    2  A    between atoms: _3  and  _4
REMARK    3  A    between atoms: _3  and  _6
REMARK    4  A    between atoms: _6  and  _7
REMARK    5  A    between atoms: _7  and  _8
REMARK    6  A    between atoms: _8  and  _9
REMARK    7  A    between atoms: _9  and  _10
REMARK    8  A    between atoms: _14  and  _16
REMARK    9  A    between atoms: _16  and  _17
REMARK   10  A    between atoms: _16  and  _19
REMARK   11  A    between atoms: _19  and  _20
REMARK   12  A    between atoms: _22  and  _24
REMARK   13  A    between atoms: _24  and  _25
REMARK   14  A    between atoms: _27  and  _29
REMARK   15  A    between atoms: _29  and  _30
REMARK   16  A    between atoms: _29  and  _32
REMARK   17  A    between atoms: _32  and  _33
REMARK   18  A    between atoms: _33  and  _34
REMARK   19  A    between atoms: _39  and  _41
REMARK   20  A    between atoms: _41  and  _42
REMARK   21  A    between atoms: _44  and  _46
REMARK   22  A    between atoms: _46  and  _47
REMARK   23  A    between atoms: _46  and  _49
REMARK   24  A    between atoms: _49  and  _50
REMARK   25  A    between atoms: _55  and  _56
REMARK   26  A    between atoms: _58  and  _60
REMARK   27  A    between atoms: _60  and  _61
REMARK   28  A    between atoms: _60  and  _63
REMARK   29  A    between atoms: _63  and  _64
REMARK   30  A    between atoms: _67  and  _69
REMARK   31  A    between atoms: _69  and  _70
REMARK   32  A    between atoms: _69  and  _72
REMARK   33  A    between atoms: _75  and  _77
REMARK   34  A    between atoms: _77  and  _78
REMARK   35  A    between atoms: _77  and  _80
REMARK   36  A    between atoms: _80  and  _81
REMARK   37  A    between atoms: _84  and  _86
REMARK   38  A    between atoms: _86  and  _87
REMARK   39  A    between atoms: _86  and  _89
REMARK   40  A    between atoms: _89  and  _90
REMARK   41  A    between atoms: _93  and  _95
REMARK   42  A    between atoms: _95  and  _96
REMARK   43  A    between atoms: _98  and  _100
REMARK   44  A    between atoms: _100  and  _101
REMARK   45  A    between atoms: _100  and  _103
REMARK   46  A    between atoms: _103  and  _104
REMARK   47  A    between atoms: _106  and  _108
REMARK   48  A    between atoms: _108  and  _109
REMARK   49  A    between atoms: _108  and  _111
REMARK   50  A    between atoms: _111  and  _112
REMARK   51  A    between atoms: _114  and  _116
REMARK   52  A    between atoms: _116  and  _117
REMARK   53  A    between atoms: _116  and  _119
REMARK   54  A    between atoms: _119  and  _120
REMARK   55  A    between atoms: _125  and  _127
REMARK   56  A    between atoms: _127  and  _128
REMARK   57  A    between atoms: _127  and  _130
REMARK   58  A    between atoms: _130  and  _131
REMARK   59  A    between atoms: _137  and  _139
REMARK   60  A    between atoms: _139  and  _140
REMARK   61  A    between atoms: _143  and  _145
REMARK   62  A    between atoms: _145  and  _146
REMARK   63  A    between atoms: _145  and  _148
REMARK   64  A    between atoms: _151  and  _153
REMARK   65  A    between atoms: _153  and  _154
REMARK   66  A    between atoms: _153  and  _156
REMARK   67  A    between atoms: _159  and  _161
REMARK   68  A    between atoms: _161  and  _162
REMARK   69  A    between atoms: _161  and  _164
REMARK   70  A    between atoms: _164  and  _165
REMARK   71  A    between atoms: _170  and  _171
REMARK   72  A    between atoms: _173  and  _175
REMARK   73  A    between atoms: _175  and  _176
REMARK   74  A    between atoms: _175  and  _178
REMARK   75  A    between atoms: _182  and  _183
REMARK   76  A    between atoms: _188  and  _190
REMARK   77  A    between atoms: _190  and  _191
REMARK   78  A    between atoms: _190  and  _193
REMARK   79  A    between atoms: _193  and  _194
REMARK   80  A    between atoms: _199  and  _200
REMARK   81  A    between atoms: _202  and  _204
REMARK   82  A    between atoms: _204  and  _205
REMARK   83  A    between atoms: _204  and  _207
REMARK   84  A    between atoms: _207  and  _208
REMARK   85  A    between atoms: _211  and  _213
REMARK   86  A    between atoms: _213  and  _214
REMARK   87  A    between atoms: _213  and  _216
REMARK   88  A    between atoms: _216  and  _217
REMARK   89  A    between atoms: _217  and  _218
REMARK   90  A    between atoms: _223  and  _225
REMARK   91  A    between atoms: _225  and  _226
REMARK   92  A    between atoms: _228  and  _230
REMARK   93  A    between atoms: _230  and  _231
REMARK   94  A    between atoms: _230  and  _233
REMARK   95  A    between atoms: _233  and  _234
REMARK   96  A    between atoms: _234  and  _235
REMARK   97  A    between atoms: _235  and  _236
REMARK   98  A    between atoms: _236  and  _237
REMARK   99  A    between atoms: _241  and  _243
REMARK  100  A    between atoms: _243  and  _244
REMARK  101  A    between atoms: _243  and  _246
REMARK  102  A    between atoms: _246  and  _247
REMARK  103  A    between atoms: _257  and  _259
REMARK  104  A    between atoms: _259  and  _260
REMARK  105  A    between atoms: _263  and  _265
REMARK  106  A    between atoms: _265  and  _266
REMARK  107  A    between atoms: _265  and  _268
REMARK  108  A    between atoms: _268  and  _269
REMARK  109  A    between atoms: _272  and  _274
REMARK  110  A    between atoms: _274  and  _275
REMARK  111  A    between atoms: _274  and  _277
REMARK  112  A    between atoms: _277  and  _278
REMARK  113  A    between atoms: _281  and  _283
REMARK  114  A    between atoms: _283  and  _284
REMARK  115  A    between atoms: _283  and  _286
REMARK  116  A    between atoms: _286  and  _287
REMARK  117  A    between atoms: _287  and  _288
REMARK  118  A    between atoms: _288  and  _289
REMARK  119  A    between atoms: _289  and  _290
REMARK  120  A    between atoms: _294  and  _296
REMARK  121  A    between atoms: _296  and  _297
REMARK  122  A    between atoms: _296  and  _299
REMARK  123  A    between atoms: _299  and  _300
REMARK  124  A    between atoms: _306  and  _308
REMARK  125  A    between atoms: _308  and  _309
REMARK  126  A    between atoms: _308  and  _311
REMARK  127  A    between atoms: _311  and  _312
REMARK  128  A    between atoms: _318  and  _320
REMARK  129  A    between atoms: _320  and  _321
REMARK  130  A    between atoms: _320  and  _323
REMARK  131  A    between atoms: _323  and  _324
REMARK  132  A    between atoms: _327  and  _329
REMARK  133  A    between atoms: _329  and  _330
REMARK  134  A    between atoms: _329  and  _332
REMARK  135  A    between atoms: _332  and  _333
REMARK  136  A    between atoms: _335  and  _337
REMARK  137  A    between atoms: _337  and  _338
REMARK  138  A    between atoms: _337  and  _340
REMARK  139  A    between atoms: _340  and  _341
REMARK  140  A    between atoms: _351  and  _353
REMARK  141  A    between atoms: _353  and  _354
REMARK  142  A    between atoms: _356  and  _358
REMARK  143  A    between atoms: _358  and  _359
REMARK  144  A    between atoms: _358  and  _361
REMARK  145  A    between atoms: _361  and  _362
REMARK  146  A    between atoms: _365  and  _367
REMARK  147  A    between atoms: _367  and  _368
REMARK  148  A    between atoms: _367  and  _370
REMARK  149  A    between atoms: _370  and  _371
REMARK  150  A    between atoms: _374  and  _376
REMARK  151  A    between atoms: _376  and  _377
REMARK  152  A    between atoms: _379  and  _381
REMARK  153  A    between atoms: _381  and  _382
REMARK  154  A    between atoms: _381  and  _384
REMARK  155  A    between atoms: _384  and  _385
REMARK  156  A    between atoms: _388  and  _390
REMARK  157  A    between atoms: _390  and  _391
REMARK  158  A    between atoms: _390  and  _393
REMARK  159  A    between atoms: _393  and  _394
REMARK  160  A    between atoms: _397  and  _399
REMARK  161  A    between atoms: _399  and  _400
REMARK  162  A    between atoms: _403  and  _405
REMARK  163  A    between atoms: _405  and  _406
REMARK  164  A    between atoms: _405  and  _408
REMARK  165  A    between atoms: _408  and  _409
REMARK  166  A    between atoms: _409  and  _410
REMARK  167  A    between atoms: _410  and  _411
REMARK  168  A    between atoms: _421  and  _422
REMARK  169  A    between atoms: _427  and  _429
REMARK  170  A    between atoms: _429  and  _430
REMARK  171  A    between atoms: _429  and  _432
REMARK  172  A    between atoms: _432  and  _433
REMARK  173  A    between atoms: _436  and  _438
REMARK  174  A    between atoms: _438  and  _439
REMARK  175  A    between atoms: _438  and  _441
REMARK  176  A    between atoms: _441  and  _442
REMARK  177  A    between atoms: _447  and  _448
REMARK  178  A    between atoms: _450  and  _452
REMARK  179  A    between atoms: _452  and  _453
REMARK  180  A    between atoms: _452  and  _455
REMARK  181  A    between atoms: _455  and  _456
REMARK  182  A    between atoms: _459  and  _461
REMARK  183  A    between atoms: _461  and  _462
REMARK  184  A    between atoms: _461  and  _464
REMARK  185  A    between atoms: _467  and  _469
REMARK  186  A    between atoms: _469  and  _470
REMARK  187  A    between atoms: _469  and  _472
REMARK  188  A    between atoms: _472  and  _473
REMARK  189  A    between atoms: _476  and  _478
REMARK  190  A    between atoms: _478  and  _479
REMARK  191  A    between atoms: _478  and  _481
REMARK  192  A    between atoms: _481  and  _482
REMARK  193  A    between atoms: _484  and  _486
REMARK  194  A    between atoms: _486  and  _487
REMARK  195  A    between atoms: _489  and  _491
REMARK  196  A    between atoms: _491  and  _492
REMARK  197  A    between atoms: _491  and  _494
REMARK  198  A    between atoms: _494  and  _495
REMARK  199  A    between atoms: _498  and  _500
REMARK  200  A    between atoms: _500  and  _501
REMARK  201  A    between atoms: _500  and  _503
REMARK  202  A    between atoms: _503  and  _504
REMARK  203  A    between atoms: _507  and  _509
REMARK  204  A    between atoms: _509  and  _510
REMARK  205  A    between atoms: _509  and  _512
REMARK  206  A    between atoms: _512  and  _513
REMARK  207  A    between atoms: _518  and  _520
REMARK  208  A    between atoms: _520  and  _521
REMARK  209  A    between atoms: _520  and  _523
REMARK  210  A    between atoms: _523  and  _524
REMARK  211  A    between atoms: _524  and  _525
REMARK  212  A    between atoms: _525  and  _526
REMARK  213  A    between atoms: _535  and  _537
REMARK  214  A    between atoms: _537  and  _538
REMARK  215  A    between atoms: _537  and  _540
REMARK  216  A    between atoms: _543  and  _545
REMARK  217  A    between atoms: _545  and  _546
REMARK  218  A    between atoms: _548  and  _550
REMARK  219  A    between atoms: _550  and  _551
REMARK  220  A    between atoms: _554  and  _556
REMARK  221  A    between atoms: _556  and  _557
REMARK  222  A    between atoms: _556  and  _559
REMARK                            x       y       z     vdW  Elec       q    Type
REMARK                         _______ _______ _______ _____ _____    ______ ____
ROOT
ATOM      1  O   HOH     1      26.167  12.890  23.902  0.00  0.00    +0.000 OA
ENDROOT
TORSDOF 0
REMARK  Name = ../refined-set-2016/4h3f/4h3f_pocket.pdb
REMARK  222 active torsions:
REMARK  status: ('A' for Active; 'I' for Inactive)
REMARK    1  A    between atoms: _1  and  _3
REMARK    2  A    between atoms: _3  and  _4
REMARK    3  A    between atoms: _3  and  _6
REMARK    4  A    between atoms: _6  and  _7
REMARK    5  A    between atoms: _7  and  _8
REMARK    6  A    between atoms: _8  and  _9
REMARK    7  A    between atoms: _9  and  _10
REMARK    8  A    between atoms: _14  and  _16
REMARK    9  A    between atoms: _16  and  _17
REMARK   10  A    between atoms: _16  and  _19
REMARK   11  A    between atoms: _19  and  _20
REMARK   12  A    between atoms: _22  and  _24
REMARK   13  A    between atoms: _24  and  _25
REMARK   14  A    between atoms: _27  and  _29
REMARK   15  A    between atoms: _29  and  _30
REMARK   16  A    between atoms: _29  and  _32
REMARK   17  A    between atoms: _32  and  _33
REMARK   18  A    between atoms: _33  and  _34
REMARK   19  A    between atoms: _39  and  _41
REMARK   20  A    between atoms: _41  and  _42
REMARK   21  A    between atoms: _44  and  _46
REMARK   22  A    between atoms: _46  and  _47
REMARK   23  A    between atoms: _46  and  _49
REMARK   24  A    between atoms: _49  and  _50
REMARK   25  A    between atoms: _55  and  _56
REMARK   26  A    between atoms: _58  and  _60
REMARK   27  A    between atoms: _60  and  _61
REMARK   28  A    between atoms: _60  and  _63
REMARK   29  A    between atoms: _63  and  _64
REMARK   30  A    between atoms: _67  and  _69
REMARK   31  A    between atoms: _69  and  _70
REMARK   32  A    between atoms: _69  and  _72
REMARK   33  A    between atoms: _75  and  _77
REMARK   34  A    between atoms: _77  and  _78
REMARK   35  A    between atoms: _77  and  _80
REMARK   36  A    between atoms: _80  and  _81
REMARK   37  A    between atoms: _84  and  _86
REMARK   38  A    between atoms: _86  and  _87
REMARK   39  A    between atoms: _86  and  _89
REMARK   40  A    between atoms: _89  and  _90
REMARK   41  A    between atoms: _93  and  _95
REMARK   42  A    between atoms: _95  and  _96
REMARK   43  A    between atoms: _98  and  _100
REMARK   44  A    between atoms: _100  and  _101
REMARK   45  A    between atoms: _100  and  _103
REMARK   46  A    between atoms: _103  and  _104
REMARK   47  A    between atoms: _106  and  _108
REMARK   48  A    between atoms: _108  and  _109
REMARK   49  A    between atoms: _108  and  _111
REMARK   50  A    between atoms: _111  and  _112
REMARK   51  A    between atoms: _114  and  _116
REMARK   52  A    between atoms: _116  and  _117
REMARK   53  A    between atoms: _116  and  _119
REMARK   54  A    between atoms: _119  and  _120
REMARK   55  A    between atoms: _125  and  _127
REMARK   56  A    between atoms: _127  and  _128
REMARK   57  A    between atoms: _127  and  _130
REMARK   58  A    between atoms: _130  and  _131
REMARK   59  A    between atoms: _137  and  _139
REMARK   60  A    between atoms: _139  and  _140
REMARK   61  A    between atoms: _143  and  _145
REMARK   62  A    between atoms: _145  and  _146
REMARK   63  A    between atoms: _145  and  _148
REMARK   64  A    between atoms: _151  and  _153
REMARK   65  A    between atoms: _153  and  _154
REMARK   66  A    between atoms: _153  and  _156
REMARK   67  A    between atoms: _159  and  _161
REMARK   68  A    between atoms: _161  and  _162
REMARK   69  A    between atoms: _161  and  _164
REMARK   70  A    between atoms: _164  and  _165
REMARK   71  A    between atoms: _170  and  _171
REMARK   72  A    between atoms: _173  and  _175
REMARK   73  A    between atoms: _175  and  _176
REMARK   74  A    between atoms: _175  and  _178
REMARK   75  A    between atoms: _182  and  _183
REMARK   76  A    between atoms: _188  and  _190
REMARK   77  A    between atoms: _190  and  _191
REMARK   78  A    between atoms: _190  and  _193
REMARK   79  A    between atoms: _193  and  _194
REMARK   80  A    between atoms: _199  and  _200
REMARK   81  A    between atoms: _202  and  _204
REMARK   82  A    between atoms: _204  and  _205
REMARK   83  A    between atoms: _204  and  _207
REMARK   84  A    between atoms: _207  and  _208
REMARK   85  A    between atoms: _211  and  _213
REMARK   86  A    between atoms: _213  and  _214
REMARK   87  A    between atoms: _213  and  _216
REMARK   88  A    between atoms: _216  and  _217
REMARK   89  A    between atoms: _217  and  _218
REMARK   90  A    between atoms: _223  and  _225
REMARK   91  A    between atoms: _225  and  _226
REMARK   92  A    between atoms: _228  and  _230
REMARK   93  A    between atoms: _230  and  _231
REMARK   94  A    between atoms: _230  and  _233
REMARK   95  A    between atoms: _233  and  _234
REMARK   96  A    between atoms: _234  and  _235
REMARK   97  A    between atoms: _235  and  _236
REMARK   98  A    between atoms: _236  and  _237
REMARK   99  A    between atoms: _241  and  _243
REMARK  100  A    between atoms: _243  and  _244
REMARK  101  A    between atoms: _243  and  _246
REMARK  102  A    between atoms: _246  and  _247
REMARK  103  A    between atoms: _257  and  _259
REMARK  104  A    between atoms: _259  and  _260
REMARK  105  A    between atoms: _263  and  _265
REMARK  106  A    between atoms: _265  and  _266
REMARK  107  A    between atoms: _265  and  _268
REMARK  108  A    between atoms: _268  and  _269
REMARK  109  A    between atoms: _272  and  _274
REMARK  110  A    between atoms: _274  and  _275
REMARK  111  A    between atoms: _274  and  _277
REMARK  112  A    between atoms: _277  and  _278
REMARK  113  A    between atoms: _281  and  _283
REMARK  114  A    between atoms: _283  and  _284
REMARK  115  A    between atoms: _283  and  _286
REMARK  116  A    between atoms: _286  and  _287
REMARK  117  A    between atoms: _287  and  _288
REMARK  118  A    between atoms: _288  and  _289
REMARK  119  A    between atoms: _289  and  _290
REMARK  120  A    between atoms: _294  and  _296
REMARK  121  A    between atoms: _296  and  _297
REMARK  122  A    between atoms: _296  and  _299
REMARK  123  A    between atoms: _299  and  _300
REMARK  124  A    between atoms: _306  and  _308
REMARK  125  A    between atoms: _308  and  _309
REMARK  126  A    between atoms: _308  and  _311
REMARK  127  A    between atoms: _311  and  _312
REMARK  128  A    between atoms: _318  and  _320
REMARK  129  A    between atoms: _320  and  _321
REMARK  130  A    between atoms: _320  and  _323
REMARK  131  A    between atoms: _323  and  _324
REMARK  132  A    between atoms: _327  and  _329
REMARK  133  A    between atoms: _329  and  _330
REMARK  134  A    between atoms: _329  and  _332
REMARK  135  A    between atoms: _332  and  _333
REMARK  136  A    between atoms: _335  and  _337
REMARK  137  A    between atoms: _337  and  _338
REMARK  138  A    between atoms: _337  and  _340
REMARK  139  A    between atoms: _340  and  _341
REMARK  140  A    between atoms: _351  and  _353
REMARK  141  A    between atoms: _353  and  _354
REMARK  142  A    between atoms: _356  and  _358
REMARK  143  A    between atoms: _358  and  _359
REMARK  144  A    between atoms: _358  and  _361
REMARK  145  A    between atoms: _361  and  _362
REMARK  146  A    between atoms: _365  and  _367
REMARK  147  A    between atoms: _367  and  _368
REMARK  148  A    between atoms: _367  and  _370
REMARK  149  A    between atoms: _370  and  _371
REMARK  150  A    between atoms: _374  and  _376
REMARK  151  A    between atoms: _376  and  _377
REMARK  152  A    between atoms: _379  and  _381
REMARK  153  A    between atoms: _381  and  _382
REMARK  154  A    between atoms: _381  and  _384
REMARK  155  A    between atoms: _384  and  _385
REMARK  156  A    between atoms: _388  and  _390
REMARK  157  A    between atoms: _390  and  _391
REMARK  158  A    between atoms: _390  and  _393
REMARK  159  A    between atoms: _393  and  _394
REMARK  160  A    between atoms: _397  and  _399
REMARK  161  A    between atoms: _399  and  _400
REMARK  162  A    between atoms: _403  and  _405
REMARK  163  A    between atoms: _405  and  _406
REMARK  164  A    between atoms: _405  and  _408
REMARK  165  A    between atoms: _408  and  _409
REMARK  166  A    between atoms: _409  and  _410
REMARK  167  A    between atoms: _410  and  _411
REMARK  168  A    between atoms: _421  and  _422
REMARK  169  A    between atoms: _427  and  _429
REMARK  170  A    between atoms: _429  and  _430
REMARK  171  A    between atoms: _429  and  _432
REMARK  172  A    between atoms: _432  and  _433
REMARK  173  A    between atoms: _436  and  _438
REMARK  174  A    between atoms: _438  and  _439
REMARK  175  A    between atoms: _438  and  _441
REMARK  176  A    between atoms: _441  and  _442
REMARK  177  A    between atoms: _447  and  _448
REMARK  178  A    between atoms: _450  and  _452
REMARK  179  A    between atoms: _452  and  _453
REMARK  180  A    between atoms: _452  and  _455
REMARK  181  A    between atoms: _455  and  _456
REMARK  182  A    between atoms: _459  and  _461
REMARK  183  A    between atoms: _461  and  _462
REMARK  184  A    between atoms: _461  and  _464
REMARK  185  A    between atoms: _467  and  _469
REMARK  186  A    between atoms: _469  and  _470
REMARK  187  A    between atoms: _469  and  _472
REMARK  188  A    between atoms: _472  and  _473
REMARK  189  A    between atoms: _476  and  _478
REMARK  190  A    between atoms: _478  and  _479
REMARK  191  A    between atoms: _478  and  _481
REMARK  192  A    between atoms: _481  and  _482
REMARK  193  A    between atoms: _484  and  _486
REMARK  194  A    between atoms: _486  and  _487
REMARK  195  A    between atoms: _489  and  _491
REMARK  196  A    between atoms: _491  and  _492
REMARK  197  A    between atoms: _491  and  _494
REMARK  198  A    between atoms: _494  and  _495
REMARK  199  A    between atoms: _498  and  _500
REMARK  200  A    between atoms: _500  and  _501
REMARK  201  A    between atoms: _500  and  _503
REMARK  202  A    between atoms: _503  and  _504
REMARK  203  A    between atoms: _507  and  _509
REMARK  204  A    between atoms: _509  and  _510
REMARK  205  A    between atoms: _509  and  _512
REMARK  206  A    between atoms: _512  and  _513
REMARK  207  A    between atoms: _518  and  _520
REMARK  208  A    between atoms: _520  and  _521
REMARK  209  A    between atoms: _520  and  _523
REMARK  210  A    between atoms: _523  and  _524
REMARK  211  A    between atoms: _524  and  _525
REMARK  212  A    between atoms: _525  and  _526
REMARK  213  A    between atoms: _535  and  _537
REMARK  214  A    between atoms: _537  and  _538
REMARK  215  A    between atoms: _537  and  _540
REMARK  216  A    between atoms: _543  and  _545
REMARK  217  A    between atoms: _545  and  _546
REMARK  218  A    between atoms: _548  and  _550
REMARK  219  A    between atoms: _550  and  _551
REMARK  220  A    between atoms: _554  and  _556
REMARK  221  A    between atoms: _556  and  _557
REMARK  222  A    between atoms: _556  and  _559
REMARK                            x       y       z     vdW  Elec       q    Type
REMARK                         _______ _______ _______ _____ _____    ______ ____
ROOT
ATOM      1  O   HOH     1      21.358  10.768  28.353  0.00  0.00    +0.000 OA
ENDROOT
TORSDOF 0
REMARK  Name = ../refined-set-2016/4h3f/4h3f_pocket.pdb
REMARK  222 active torsions:
REMARK  status: ('A' for Active; 'I' for Inactive)
REMARK    1  A    between atoms: _1  and  _3
REMARK    2  A    between atoms: _3  and  _4
REMARK    3  A    between atoms: _3  and  _6
REMARK    4  A    between atoms: _6  and  _7
REMARK    5  A    between atoms: _7  and  _8
REMARK    6  A    between atoms: _8  and  _9
REMARK    7  A    between atoms: _9  and  _10
REMARK    8  A    between atoms: _14  and  _16
REMARK    9  A    between atoms: _16  and  _17
REMARK   10  A    between atoms: _16  and  _19
REMARK   11  A    between atoms: _19  and  _20
REMARK   12  A    between atoms: _22  and  _24
REMARK   13  A    between atoms: _24  and  _25
REMARK   14  A    between atoms: _27  and  _29
REMARK   15  A    between atoms: _29  and  _30
REMARK   16  A    between atoms: _29  and  _32
REMARK   17  A    between atoms: _32  and  _33
REMARK   18  A    between atoms: _33  and  _34
REMARK   19  A    between atoms: _39  and  _41
REMARK   20  A    between atoms: _41  and  _42
REMARK   21  A    between atoms: _44  and  _46
REMARK   22  A    between atoms: _46  and  _47
REMARK   23  A    between atoms: _46  and  _49
REMARK   24  A    between atoms: _49  and  _50
REMARK   25  A    between atoms: _55  and  _56
REMARK   26  A    between atoms: _58  and  _60
REMARK   27  A    between atoms: _60  and  _61
REMARK   28  A    between atoms: _60  and  _63
REMARK   29  A    between atoms: _63  and  _64
REMARK   30  A    between atoms: _67  and  _69
REMARK   31  A    between atoms: _69  and  _70
REMARK   32  A    between atoms: _69  and  _72
REMARK   33  A    between atoms: _75  and  _77
REMARK   34  A    between atoms: _77  and  _78
REMARK   35  A    between atoms: _77  and  _80
REMARK   36  A    between atoms: _80  and  _81
REMARK   37  A    between atoms: _84  and  _86
REMARK   38  A    between atoms: _86  and  _87
REMARK   39  A    between atoms: _86  and  _89
REMARK   40  A    between atoms: _89  and  _90
REMARK   41  A    between atoms: _93  and  _95
REMARK   42  A    between atoms: _95  and  _96
REMARK   43  A    between atoms: _98  and  _100
REMARK   44  A    between atoms: _100  and  _101
REMARK   45  A    between atoms: _100  and  _103
REMARK   46  A    between atoms: _103  and  _104
REMARK   47  A    between atoms: _106  and  _108
REMARK   48  A    between atoms: _108  and  _109
REMARK   49  A    between atoms: _108  and  _111
REMARK   50  A    between atoms: _111  and  _112
REMARK   51  A    between atoms: _114  and  _116
REMARK   52  A    between atoms: _116  and  _117
REMARK   53  A    between atoms: _116  and  _119
REMARK   54  A    between atoms: _119  and  _120
REMARK   55  A    between atoms: _125  and  _127
REMARK   56  A    between atoms: _127  and  _128
REMARK   57  A    between atoms: _127  and  _130
REMARK   58  A    between atoms: _130  and  _131
REMARK   59  A    between atoms: _137  and  _139
REMARK   60  A    between atoms: _139  and  _140
REMARK   61  A    between atoms: _143  and  _145
REMARK   62  A    between atoms: _145  and  _146
REMARK   63  A    between atoms: _145  and  _148
REMARK   64  A    between atoms: _151  and  _153
REMARK   65  A    between atoms: _153  and  _154
REMARK   66  A    between atoms: _153  and  _156
REMARK   67  A    between atoms: _159  and  _161
REMARK   68  A    between atoms: _161  and  _162
REMARK   69  A    between atoms: _161  and  _164
REMARK   70  A    between atoms: _164  and  _165
REMARK   71  A    between atoms: _170  and  _171
REMARK   72  A    between atoms: _173  and  _175
REMARK   73  A    between atoms: _175  and  _176
REMARK   74  A    between atoms: _175  and  _178
REMARK   75  A    between atoms: _182  and  _183
REMARK   76  A    between atoms: _188  and  _190
REMARK   77  A    between atoms: _190  and  _191
REMARK   78  A    between atoms: _190  and  _193
REMARK   79  A    between atoms: _193  and  _194
REMARK   80  A    between atoms: _199  and  _200
REMARK   81  A    between atoms: _202  and  _204
REMARK   82  A    between atoms: _204  and  _205
REMARK   83  A    between atoms: _204  and  _207
REMARK   84  A    between atoms: _207  and  _208
REMARK   85  A    between atoms: _211  and  _213
REMARK   86  A    between atoms: _213  and  _214
REMARK   87  A    between atoms: _213  and  _216
REMARK   88  A    between atoms: _216  and  _217
REMARK   89  A    between atoms: _217  and  _218
REMARK   90  A    between atoms: _223  and  _225
REMARK   91  A    between atoms: _225  and  _226
REMARK   92  A    between atoms: _228  and  _230
REMARK   93  A    between atoms: _230  and  _231
REMARK   94  A    between atoms: _230  and  _233
REMARK   95  A    between atoms: _233  and  _234
REMARK   96  A    between atoms: _234  and  _235
REMARK   97  A    between atoms: _235  and  _236
REMARK   98  A    between atoms: _236  and  _237
REMARK   99  A    between atoms: _241  and  _243
REMARK  100  A    between atoms: _243  and  _244
REMARK  101  A    between atoms: _243  and  _246
REMARK  102  A    between atoms: _246  and  _247
REMARK  103  A    between atoms: _257  and  _259
REMARK  104  A    between atoms: _259  and  _260
REMARK  105  A    between atoms: _263  and  _265
REMARK  106  A    between atoms: _265  and  _266
REMARK  107  A    between atoms: _265  and  _268
REMARK  108  A    between atoms: _268  and  _269
REMARK  109  A    between atoms: _272  and  _274
REMARK  110  A    between atoms: _274  and  _275
REMARK  111  A    between atoms: _274  and  _277
REMARK  112  A    between atoms: _277  and  _278
REMARK  113  A    between atoms: _281  and  _283
REMARK  114  A    between atoms: _283  and  _284
REMARK  115  A    between atoms: _283  and  _286
REMARK  116  A    between atoms: _286  and  _287
REMARK  117  A    between atoms: _287  and  _288
REMARK  118  A    between atoms: _288  and  _289
REMARK  119  A    between atoms: _289  and  _290
REMARK  120  A    between atoms: _294  and  _296
REMARK  121  A    between atoms: _296  and  _297
REMARK  122  A    between atoms: _296  and  _299
REMARK  123  A    between atoms: _299  and  _300
REMARK  124  A    between atoms: _306  and  _308
REMARK  125  A    between atoms: _308  and  _309
REMARK  126  A    between atoms: _308  and  _311
REMARK  127  A    between atoms: _311  and  _312
REMARK  128  A    between atoms: _318  and  _320
REMARK  129  A    between atoms: _320  and  _321
REMARK  130  A    between atoms: _320  and  _323
REMARK  131  A    between atoms: _323  and  _324
REMARK  132  A    between atoms: _327  and  _329
REMARK  133  A    between atoms: _329  and  _330
REMARK  134  A    between atoms: _329  and  _332
REMARK  135  A    between atoms: _332  and  _333
REMARK  136  A    between atoms: _335  and  _337
REMARK  137  A    between atoms: _337  and  _338
REMARK  138  A    between atoms: _337  and  _340
REMARK  139  A    between atoms: _340  and  _341
REMARK  140  A    between atoms: _351  and  _353
REMARK  141  A    between atoms: _353  and  _354
REMARK  142  A    between atoms: _356  and  _358
REMARK  143  A    between atoms: _358  and  _359
REMARK  144  A    between atoms: _358  and  _361
REMARK  145  A    between atoms: _361  and  _362
REMARK  146  A    between atoms: _365  and  _367
REMARK  147  A    between atoms: _367  and  _368
REMARK  148  A    between atoms: _367  and  _370
REMARK  149  A    between atoms: _370  and  _371
REMARK  150  A    between atoms: _374  and  _376
REMARK  151  A    between atoms: _376  and  _377
REMARK  152  A    between atoms: _379  and  _381
REMARK  153  A    between atoms: _381  and  _382
REMARK  154  A    between atoms: _381  and  _384
REMARK  155  A    between atoms: _384  and  _385
REMARK  156  A    between atoms: _388  and  _390
REMARK  157  A    between atoms: _390  and  _391
REMARK  158  A    between atoms: _390  and  _393
REMARK  159  A    between atoms: _393  and  _394
REMARK  160  A    between atoms: _397  and  _399
REMARK  161  A    between atoms: _399  and  _400
REMARK  162  A    between atoms: _403  and  _405
REMARK  163  A    between atoms: _405  and  _406
REMARK  164  A    between atoms: _405  and  _408
REMARK  165  A    between atoms: _408  and  _409
REMARK  166  A    between atoms: _409  and  _410
REMARK  167  A    between atoms: _410  and  _411
REMARK  168  A    between atoms: _421  and  _422
REMARK  169  A    between atoms: _427  and  _429
REMARK  170  A    between atoms: _429  and  _430
REMARK  171  A    between atoms: _429  and  _432
REMARK  172  A    between atoms: _432  and  _433
REMARK  173  A    between atoms: _436  and  _438
REMARK  174  A    between atoms: _438  and  _439
REMARK  175  A    between atoms: _438  and  _441
REMARK  176  A    between atoms: _441  and  _442
REMARK  177  A    between atoms: _447  and  _448
REMARK  178  A    between atoms: _450  and  _452
REMARK  179  A    between atoms: _452  and  _453
REMARK  180  A    between atoms: _452  and  _455
REMARK  181  A    between atoms: _455  and  _456
REMARK  182  A    between atoms: _459  and  _461
REMARK  183  A    between atoms: _461  and  _462
REMARK  184  A    between atoms: _461  and  _464
REMARK  185  A    between atoms: _467  and  _469
REMARK  186  A    between atoms: _469  and  _470
REMARK  187  A    between atoms: _469  and  _472
REMARK  188  A    between atoms: _472  and  _473
REMARK  189  A    between atoms: _476  and  _478
REMARK  190  A    between atoms: _478  and  _479
REMARK  191  A    between atoms: _478  and  _481
REMARK  192  A    between atoms: _481  and  _482
REMARK  193  A    between atoms: _484  and  _486
REMARK  194  A    between atoms: _486  and  _487
REMARK  195  A    between atoms: _489  and  _491
REMARK  196  A    between atoms: _491  and  _492
REMARK  197  A    between atoms: _491  and  _494
REMARK  198  A    between atoms: _494  and  _495
REMARK  199  A    between atoms: _498  and  _500
REMARK  200  A    between atoms: _500  and  _501
REMARK  201  A    between atoms: _500  and  _503
REMARK  202  A    between atoms: _503  and  _504
REMARK  203  A    between atoms: _507  and  _509
REMARK  204  A    between atoms: _509  and  _510
REMARK  205  A    between atoms: _509  and  _512
REMARK  206  A    between atoms: _512  and  _513
REMARK  207  A    between atoms: _518  and  _520
REMARK  208  A    between atoms: _520  and  _521
REMARK  209  A    between atoms: _520  and  _523
REMARK  210  A    between atoms: _523  and  _524
REMARK  211  A    between atoms: _524  and  _525
REMARK  212  A    between atoms: _525  and  _526
REMARK  213  A    between atoms: _535  and  _537
REMARK  214  A    between atoms: _537  and  _538
REMARK  215  A    between atoms: _537  and  _540
REMARK  216  A    between atoms: _543  and  _545
REMARK  217  A    between atoms: _545  and  _546
REMARK  218  A    between atoms: _548  and  _550
REMARK  219  A    between atoms: _550  and  _551
REMARK  220  A    between atoms: _554  and  _556
REMARK  221  A    between atoms: _556  and  _557
REMARK  222  A    between atoms: _556  and  _559
REMARK                            x       y       z     vdW  Elec       q    Type
REMARK                         _______ _______ _______ _____ _____    ______ ____
ROOT
ATOM      1  O   HOH     1      26.039  13.810  17.121  0.00  0.00    +0.000 OA
ENDROOT
TORSDOF 0
REMARK  Name = ../refined-set-2016/4h3f/4h3f_pocket.pdb
REMARK  222 active torsions:
REMARK  status: ('A' for Active; 'I' for Inactive)
REMARK    1  A    between atoms: _1  and  _3
REMARK    2  A    between atoms: _3  and  _4
REMARK    3  A    between atoms: _3  and  _6
REMARK    4  A    between atoms: _6  and  _7
REMARK    5  A    between atoms: _7  and  _8
REMARK    6  A    between atoms: _8  and  _9
REMARK    7  A    between atoms: _9  and  _10
REMARK    8  A    between atoms: _14  and  _16
REMARK    9  A    between atoms: _16  and  _17
REMARK   10  A    between atoms: _16  and  _19
REMARK   11  A    between atoms: _19  and  _20
REMARK   12  A    between atoms: _22  and  _24
REMARK   13  A    between atoms: _24  and  _25
REMARK   14  A    between atoms: _27  and  _29
REMARK   15  A    between atoms: _29  and  _30
REMARK   16  A    between atoms: _29  and  _32
REMARK   17  A    between atoms: _32  and  _33
REMARK   18  A    between atoms: _33  and  _34
REMARK   19  A    between atoms: _39  and  _41
REMARK   20  A    between atoms: _41  and  _42
REMARK   21  A    between atoms: _44  and  _46
REMARK   22  A    between atoms: _46  and  _47
REMARK   23  A    between atoms: _46  and  _49
REMARK   24  A    between atoms: _49  and  _50
REMARK   25  A    between atoms: _55  and  _56
REMARK   26  A    between atoms: _58  and  _60
REMARK   27  A    between atoms: _60  and  _61
REMARK   28  A    between atoms: _60  and  _63
REMARK   29  A    between atoms: _63  and  _64
REMARK   30  A    between atoms: _67  and  _69
REMARK   31  A    between atoms: _69  and  _70
REMARK   32  A    between atoms: _69  and  _72
REMARK   33  A    between atoms: _75  and  _77
REMARK   34  A    between atoms: _77  and  _78
REMARK   35  A    between atoms: _77  and  _80
REMARK   36  A    between atoms: _80  and  _81
REMARK   37  A    between atoms: _84  and  _86
REMARK   38  A    between atoms: _86  and  _87
REMARK   39  A    between atoms: _86  and  _89
REMARK   40  A    between atoms: _89  and  _90
REMARK   41  A    between atoms: _93  and  _95
REMARK   42  A    between atoms: _95  and  _96
REMARK   43  A    between atoms: _98  and  _100
REMARK   44  A    between atoms: _100  and  _101
REMARK   45  A    between atoms: _100  and  _103
REMARK   46  A    between atoms: _103  and  _104
REMARK   47  A    between atoms: _106  and  _108
REMARK   48  A    between atoms: _108  and  _109
REMARK   49  A    between atoms: _108  and  _111
REMARK   50  A    between atoms: _111  and  _112
REMARK   51  A    between atoms: _114  and  _116
REMARK   52  A    between atoms: _116  and  _117
REMARK   53  A    between atoms: _116  and  _119
REMARK   54  A    between atoms: _119  and  _120
REMARK   55  A    between atoms: _125  and  _127
REMARK   56  A    between atoms: _127  and  _128
REMARK   57  A    between atoms: _127  and  _130
REMARK   58  A    between atoms: _130  and  _131
REMARK   59  A    between atoms: _137  and  _139
REMARK   60  A    between atoms: _139  and  _140
REMARK   61  A    between atoms: _143  and  _145
REMARK   62  A    between atoms: _145  and  _146
REMARK   63  A    between atoms: _145  and  _148
REMARK   64  A    between atoms: _151  and  _153
REMARK   65  A    between atoms: _153  and  _154
REMARK   66  A    between atoms: _153  and  _156
REMARK   67  A    between atoms: _159  and  _161
REMARK   68  A    between atoms: _161  and  _162
REMARK   69  A    between atoms: _161  and  _164
REMARK   70  A    between atoms: _164  and  _165
REMARK   71  A    between atoms: _170  and  _171
REMARK   72  A    between atoms: _173  and  _175
REMARK   73  A    between atoms: _175  and  _176
REMARK   74  A    between atoms: _175  and  _178
REMARK   75  A    between atoms: _182  and  _183
REMARK   76  A    between atoms: _188  and  _190
REMARK   77  A    between atoms: _190  and  _191
REMARK   78  A    between atoms: _190  and  _193
REMARK   79  A    between atoms: _193  and  _194
REMARK   80  A    between atoms: _199  and  _200
REMARK   81  A    between atoms: _202  and  _204
REMARK   82  A    between atoms: _204  and  _205
REMARK   83  A    between atoms: _204  and  _207
REMARK   84  A    between atoms: _207  and  _208
REMARK   85  A    between atoms: _211  and  _213
REMARK   86  A    between atoms: _213  and  _214
REMARK   87  A    between atoms: _213  and  _216
REMARK   88  A    between atoms: _216  and  _217
REMARK   89  A    between atoms: _217  and  _218
REMARK   90  A    between atoms: _223  and  _225
REMARK   91  A    between atoms: _225  and  _226
REMARK   92  A    between atoms: _228  and  _230
REMARK   93  A    between atoms: _230  and  _231
REMARK   94  A    between atoms: _230  and  _233
REMARK   95  A    between atoms: _233  and  _234
REMARK   96  A    between atoms: _234  and  _235
REMARK   97  A    between atoms: _235  and  _236
REMARK   98  A    between atoms: _236  and  _237
REMARK   99  A    between atoms: _241  and  _243
REMARK  100  A    between atoms: _243  and  _244
REMARK  101  A    between atoms: _243  and  _246
REMARK  102  A    between atoms: _246  and  _247
REMARK  103  A    between atoms: _257  and  _259
REMARK  104  A    between atoms: _259  and  _260
REMARK  105  A    between atoms: _263  and  _265
REMARK  106  A    between atoms: _265  and  _266
REMARK  107  A    between atoms: _265  and  _268
REMARK  108  A    between atoms: _268  and  _269
REMARK  109  A    between atoms: _272  and  _274
REMARK  110  A    between atoms: _274  and  _275
REMARK  111  A    between atoms: _274  and  _277
REMARK  112  A    between atoms: _277  and  _278
REMARK  113  A    between atoms: _281  and  _283
REMARK  114  A    between atoms: _283  and  _284
REMARK  115  A    between atoms: _283  and  _286
REMARK  116  A    between atoms: _286  and  _287
REMARK  117  A    between atoms: _287  and  _288
REMARK  118  A    between atoms: _288  and  _289
REMARK  119  A    between atoms: _289  and  _290
REMARK  120  A    between atoms: _294  and  _296
REMARK  121  A    between atoms: _296  and  _297
REMARK  122  A    between atoms: _296  and  _299
REMARK  123  A    between atoms: _299  and  _300
REMARK  124  A    between atoms: _306  and  _308
REMARK  125  A    between atoms: _308  and  _309
REMARK  126  A    between atoms: _308  and  _311
REMARK  127  A    between atoms: _311  and  _312
REMARK  128  A    between atoms: _318  and  _320
REMARK  129  A    between atoms: _320  and  _321
REMARK  130  A    between atoms: _320  and  _323
REMARK  131  A    between atoms: _323  and  _324
REMARK  132  A    between atoms: _327  and  _329
REMARK  133  A    between atoms: _329  and  _330
REMARK  134  A    between atoms: _329  and  _332
REMARK  135  A    between atoms: _332  and  _333
REMARK  136  A    between atoms: _335  and  _337
REMARK  137  A    between atoms: _337  and  _338
REMARK  138  A    between atoms: _337  and  _340
REMARK  139  A    between atoms: _340  and  _341
REMARK  140  A    between atoms: _351  and  _353
REMARK  141  A    between atoms: _353  and  _354
REMARK  142  A    between atoms: _356  and  _358
REMARK  143  A    between atoms: _358  and  _359
REMARK  144  A    between atoms: _358  and  _361
REMARK  145  A    between atoms: _361  and  _362
REMARK  146  A    between atoms: _365  and  _367
REMARK  147  A    between atoms: _367  and  _368
REMARK  148  A    between atoms: _367  and  _370
REMARK  149  A    between atoms: _370  and  _371
REMARK  150  A    between atoms: _374  and  _376
REMARK  151  A    between atoms: _376  and  _377
REMARK  152  A    between atoms: _379  and  _381
REMARK  153  A    between atoms: _381  and  _382
REMARK  154  A    between atoms: _381  and  _384
REMARK  155  A    between atoms: _384  and  _385
REMARK  156  A    between atoms: _388  and  _390
REMARK  157  A    between atoms: _390  and  _391
REMARK  158  A    between atoms: _390  and  _393
REMARK  159  A    between atoms: _393  and  _394
REMARK  160  A    between atoms: _397  and  _399
REMARK  161  A    between atoms: _399  and  _400
REMARK  162  A    between atoms: _403  and  _405
REMARK  163  A    between atoms: _405  and  _406
REMARK  164  A    between atoms: _405  and  _408
REMARK  165  A    between atoms: _408  and  _409
REMARK  166  A    between atoms: _409  and  _410
REMARK  167  A    between atoms: _410  and  _411
REMARK  168  A    between atoms: _421  and  _422
REMARK  169  A    between atoms: _427  and  _429
REMARK  170  A    between atoms: _429  and  _430
REMARK  171  A    between atoms: _429  and  _432
REMARK  172  A    between atoms: _432  and  _433
REMARK  173  A    between atoms: _436  and  _438
REMARK  174  A    between atoms: _438  and  _439
REMARK  175  A    between atoms: _438  and  _441
REMARK  176  A    between atoms: _441  and  _442
REMARK  177  A    between atoms: _447  and  _448
REMARK  178  A    between atoms: _450  and  _452
REMARK  179  A    between atoms: _452  and  _453
REMARK  180  A    between atoms: _452  and  _455
REMARK  181  A    between atoms: _455  and  _456
REMARK  182  A    between atoms: _459  and  _461
REMARK  183  A    between atoms: _461  and  _462
REMARK  184  A    between atoms: _461  and  _464
REMARK  185  A    between atoms: _467  and  _469
REMARK  186  A    between atoms: _469  and  _470
REMARK  187  A    between atoms: _469  and  _472
REMARK  188  A    between atoms: _472  and  _473
REMARK  189  A    between atoms: _476  and  _478
REMARK  190  A    between atoms: _478  and  _479
REMARK  191  A    between atoms: _478  and  _481
REMARK  192  A    between atoms: _481  and  _482
REMARK  193  A    between atoms: _484  and  _486
REMARK  194  A    between atoms: _486  and  _487
REMARK  195  A    between atoms: _489  and  _491
REMARK  196  A    between atoms: _491  and  _492
REMARK  197  A    between atoms: _491  and  _494
REMARK  198  A    between atoms: _494  and  _495
REMARK  199  A    between atoms: _498  and  _500
REMARK  200  A    between atoms: _500  and  _501
REMARK  201  A    between atoms: _500  and  _503
REMARK  202  A    between atoms: _503  and  _504
REMARK  203  A    between atoms: _507  and  _509
REMARK  204  A    between atoms: _509  and  _510
REMARK  205  A    between atoms: _509  and  _512
REMARK  206  A    between atoms: _512  and  _513
REMARK  207  A    between atoms: _518  and  _520
REMARK  208  A    between atoms: _520  and  _521
REMARK  209  A    between atoms: _520  and  _523
REMARK  210  A    between atoms: _523  and  _524
REMARK  211  A    between atoms: _524  and  _525
REMARK  212  A    between atoms: _525  and  _526
REMARK  213  A    between atoms: _535  and  _537
REMARK  214  A    between atoms: _537  and  _538
REMARK  215  A    between atoms: _537  and  _540
REMARK  216  A    between atoms: _543  and  _545
REMARK  217  A    between atoms: _545  and  _546
REMARK  218  A    between atoms: _548  and  _550
REMARK  219  A    between atoms: _550  and  _551
REMARK  220  A    between atoms: _554  and  _556
REMARK  221  A    between atoms: _556  and  _557
REMARK  222  A    between atoms: _556  and  _559
REMARK                            x       y       z     vdW  Elec       q    Type
REMARK                         _______ _______ _______ _____ _____    ______ ____
ROOT
ATOM      1  O   HOH     1      17.426  13.280  30.085  0.00  0.00    +0.000 OA
ENDROOT
TORSDOF 0
REMARK  Name = ../refined-set-2016/4h3f/4h3f_pocket.pdb
REMARK  222 active torsions:
REMARK  status: ('A' for Active; 'I' for Inactive)
REMARK    1  A    between atoms: _1  and  _3
REMARK    2  A    between atoms: _3  and  _4
REMARK    3  A    between atoms: _3  and  _6
REMARK    4  A    between atoms: _6  and  _7
REMARK    5  A    between atoms: _7  and  _8
REMARK    6  A    between atoms: _8  and  _9
REMARK    7  A    between atoms: _9  and  _10
REMARK    8  A    between atoms: _14  and  _16
REMARK    9  A    between atoms: _16  and  _17
REMARK   10  A    between atoms: _16  and  _19
REMARK   11  A    between atoms: _19  and  _20
REMARK   12  A    between atoms: _22  and  _24
REMARK   13  A    between atoms: _24  and  _25
REMARK   14  A    between atoms: _27  and  _29
REMARK   15  A    between atoms: _29  and  _30
REMARK   16  A    between atoms: _29  and  _32
REMARK   17  A    between atoms: _32  and  _33
REMARK   18  A    between atoms: _33  and  _34
REMARK   19  A    between atoms: _39  and  _41
REMARK   20  A    between atoms: _41  and  _42
REMARK   21  A    between atoms: _44  and  _46
REMARK   22  A    between atoms: _46  and  _47
REMARK   23  A    between atoms: _46  and  _49
REMARK   24  A    between atoms: _49  and  _50
REMARK   25  A    between atoms: _55  and  _56
REMARK   26  A    between atoms: _58  and  _60
REMARK   27  A    between atoms: _60  and  _61
REMARK   28  A    between atoms: _60  and  _63
REMARK   29  A    between atoms: _63  and  _64
REMARK   30  A    between atoms: _67  and  _69
REMARK   31  A    between atoms: _69  and  _70
REMARK   32  A    between atoms: _69  and  _72
REMARK   33  A    between atoms: _75  and  _77
REMARK   34  A    between atoms: _77  and  _78
REMARK   35  A    between atoms: _77  and  _80
REMARK   36  A    between atoms: _80  and  _81
REMARK   37  A    between atoms: _84  and  _86
REMARK   38  A    between atoms: _86  and  _87
REMARK   39  A    between atoms: _86  and  _89
REMARK   40  A    between atoms: _89  and  _90
REMARK   41  A    between atoms: _93  and  _95
REMARK   42  A    between atoms: _95  and  _96
REMARK   43  A    between atoms: _98  and  _100
REMARK   44  A    between atoms: _100  and  _101
REMARK   45  A    between atoms: _100  and  _103
REMARK   46  A    between atoms: _103  and  _104
REMARK   47  A    between atoms: _106  and  _108
REMARK   48  A    between atoms: _108  and  _109
REMARK   49  A    between atoms: _108  and  _111
REMARK   50  A    between atoms: _111  and  _112
REMARK   51  A    between atoms: _114  and  _116
REMARK   52  A    between atoms: _116  and  _117
REMARK   53  A    between atoms: _116  and  _119
REMARK   54  A    between atoms: _119  and  _120
REMARK   55  A    between atoms: _125  and  _127
REMARK   56  A    between atoms: _127  and  _128
REMARK   57  A    between atoms: _127  and  _130
REMARK   58  A    between atoms: _130  and  _131
REMARK   59  A    between atoms: _137  and  _139
REMARK   60  A    between atoms: _139  and  _140
REMARK   61  A    between atoms: _143  and  _145
REMARK   62  A    between atoms: _145  and  _146
REMARK   63  A    between atoms: _145  and  _148
REMARK   64  A    between atoms: _151  and  _153
REMARK   65  A    between atoms: _153  and  _154
REMARK   66  A    between atoms: _153  and  _156
REMARK   67  A    between atoms: _159  and  _161
REMARK   68  A    between atoms: _161  and  _162
REMARK   69  A    between atoms: _161  and  _164
REMARK   70  A    between atoms: _164  and  _165
REMARK   71  A    between atoms: _170  and  _171
REMARK   72  A    between atoms: _173  and  _175
REMARK   73  A    between atoms: _175  and  _176
REMARK   74  A    between atoms: _175  and  _178
REMARK   75  A    between atoms: _182  and  _183
REMARK   76  A    between atoms: _188  and  _190
REMARK   77  A    between atoms: _190  and  _191
REMARK   78  A    between atoms: _190  and  _193
REMARK   79  A    between atoms: _193  and  _194
REMARK   80  A    between atoms: _199  and  _200
REMARK   81  A    between atoms: _202  and  _204
REMARK   82  A    between atoms: _204  and  _205
REMARK   83  A    between atoms: _204  and  _207
REMARK   84  A    between atoms: _207  and  _208
REMARK   85  A    between atoms: _211  and  _213
REMARK   86  A    between atoms: _213  and  _214
REMARK   87  A    between atoms: _213  and  _216
REMARK   88  A    between atoms: _216  and  _217
REMARK   89  A    between atoms: _217  and  _218
REMARK   90  A    between atoms: _223  and  _225
REMARK   91  A    between atoms: _225  and  _226
REMARK   92  A    between atoms: _228  and  _230
REMARK   93  A    between atoms: _230  and  _231
REMARK   94  A    between atoms: _230  and  _233
REMARK   95  A    between atoms: _233  and  _234
REMARK   96  A    between atoms: _234  and  _235
REMARK   97  A    between atoms: _235  and  _236
REMARK   98  A    between atoms: _236  and  _237
REMARK   99  A    between atoms: _241  and  _243
REMARK  100  A    between atoms: _243  and  _244
REMARK  101  A    between atoms: _243  and  _246
REMARK  102  A    between atoms: _246  and  _247
REMARK  103  A    between atoms: _257  and  _259
REMARK  104  A    between atoms: _259  and  _260
REMARK  105  A    between atoms: _263  and  _265
REMARK  106  A    between atoms: _265  and  _266
REMARK  107  A    between atoms: _265  and  _268
REMARK  108  A    between atoms: _268  and  _269
REMARK  109  A    between atoms: _272  and  _274
REMARK  110  A    between atoms: _274  and  _275
REMARK  111  A    between atoms: _274  and  _277
REMARK  112  A    between atoms: _277  and  _278
REMARK  113  A    between atoms: _281  and  _283
REMARK  114  A    between atoms: _283  and  _284
REMARK  115  A    between atoms: _283  and  _286
REMARK  116  A    between atoms: _286  and  _287
REMARK  117  A    between atoms: _287  and  _288
REMARK  118  A    between atoms: _288  and  _289
REMARK  119  A    between atoms: _289  and  _290
REMARK  120  A    between atoms: _294  and  _296
REMARK  121  A    between atoms: _296  and  _297
REMARK  122  A    between atoms: _296  and  _299
REMARK  123  A    between atoms: _299  and  _300
REMARK  124  A    between atoms: _306  and  _308
REMARK  125  A    between atoms: _308  and  _309
REMARK  126  A    between atoms: _308  and  _311
REMARK  127  A    between atoms: _311  and  _312
REMARK  128  A    between atoms: _318  and  _320
REMARK  129  A    between atoms: _320  and  _321
REMARK  130  A    between atoms: _320  and  _323
REMARK  131  A    between atoms: _323  and  _324
REMARK  132  A    between atoms: _327  and  _329
REMARK  133  A    between atoms: _329  and  _330
REMARK  134  A    between atoms: _329  and  _332
REMARK  135  A    between atoms: _332  and  _333
REMARK  136  A    between atoms: _335  and  _337
REMARK  137  A    between atoms: _337  and  _338
REMARK  138  A    between atoms: _337  and  _340
REMARK  139  A    between atoms: _340  and  _341
REMARK  140  A    between atoms: _351  and  _353
REMARK  141  A    between atoms: _353  and  _354
REMARK  142  A    between atoms: _356  and  _358
REMARK  143  A    between atoms: _358  and  _359
REMARK  144  A    between atoms: _358  and  _361
REMARK  145  A    between atoms: _361  and  _362
REMARK  146  A    between atoms: _365  and  _367
REMARK  147  A    between atoms: _367  and  _368
REMARK  148  A    between atoms: _367  and  _370
REMARK  149  A    between atoms: _370  and  _371
REMARK  150  A    between atoms: _374  and  _376
REMARK  151  A    between atoms: _376  and  _377
REMARK  152  A    between atoms: _379  and  _381
REMARK  153  A    between atoms: _381  and  _382
REMARK  154  A    between atoms: _381  and  _384
REMARK  155  A    between atoms: _384  and  _385
REMARK  156  A    between atoms: _388  and  _390
REMARK  157  A    between atoms: _390  and  _391
REMARK  158  A    between atoms: _390  and  _393
REMARK  159  A    between atoms: _393  and  _394
REMARK  160  A    between atoms: _397  and  _399
REMARK  161  A    between atoms: _399  and  _400
REMARK  162  A    between atoms: _403  and  _405
REMARK  163  A    between atoms: _405  and  _406
REMARK  164  A    between atoms: _405  and  _408
REMARK  165  A    between atoms: _408  and  _409
REMARK  166  A    between atoms: _409  and  _410
REMARK  167  A    between atoms: _410  and  _411
REMARK  168  A    between atoms: _421  and  _422
REMARK  169  A    between atoms: _427  and  _429
REMARK  170  A    between atoms: _429  and  _430
REMARK  171  A    between atoms: _429  and  _432
REMARK  172  A    between atoms: _432  and  _433
REMARK  173  A    between atoms: _436  and  _438
REMARK  174  A    between atoms: _438  and  _439
REMARK  175  A    between atoms: _438  and  _441
REMARK  176  A    between atoms: _441  and  _442
REMARK  177  A    between atoms: _447  and  _448
REMARK  178  A    between atoms: _450  and  _452
REMARK  179  A    between atoms: _452  and  _453
REMARK  180  A    between atoms: _452  and  _455
REMARK  181  A    between atoms: _455  and  _456
REMARK  182  A    between atoms: _459  and  _461
REMARK  183  A    between atoms: _461  and  _462
REMARK  184  A    between atoms: _461  and  _464
REMARK  185  A    between atoms: _467  and  _469
REMARK  186  A    between atoms: _469  and  _470
REMARK  187  A    between atoms: _469  and  _472
REMARK  188  A    between atoms: _472  and  _473
REMARK  189  A    between atoms: _476  and  _478
REMARK  190  A    between atoms: _478  and  _479
REMARK  191  A    between atoms: _478  and  _481
REMARK  192  A    between atoms: _481  and  _482
REMARK  193  A    between atoms: _484  and  _486
REMARK  194  A    between atoms: _486  and  _487
REMARK  195  A    between atoms: _489  and  _491
REMARK  196  A    between atoms: _491  and  _492
REMARK  197  A    between atoms: _491  and  _494
REMARK  198  A    between atoms: _494  and  _495
REMARK  199  A    between atoms: _498  and  _500
REMARK  200  A    between atoms: _500  and  _501
REMARK  201  A    between atoms: _500  and  _503
REMARK  202  A    between atoms: _503  and  _504
REMARK  203  A    between atoms: _507  and  _509
REMARK  204  A    between atoms: _509  and  _510
REMARK  205  A    between atoms: _509  and  _512
REMARK  206  A    between atoms: _512  and  _513
REMARK  207  A    between atoms: _518  and  _520
REMARK  208  A    between atoms: _520  and  _521
REMARK  209  A    between atoms: _520  and  _523
REMARK  210  A    between atoms: _523  and  _524
REMARK  211  A    between atoms: _524  and  _525
REMARK  212  A    between atoms: _525  and  _526
REMARK  213  A    between atoms: _535  and  _537
REMARK  214  A    between atoms: _537  and  _538
REMARK  215  A    between atoms: _537  and  _540
REMARK  216  A    between atoms: _543  and  _545
REMARK  217  A    between atoms: _545  and  _546
REMARK  218  A    between atoms: _548  and  _550
REMARK  219  A    between atoms: _550  and  _551
REMARK  220  A    between atoms: _554  and  _556
REMARK  221  A    between atoms: _556  and  _557
REMARK  222  A    between atoms: _556  and  _559
REMARK                            x       y       z     vdW  Elec       q    Type
REMARK                         _______ _______ _______ _____ _____    ______ ____
ROOT
ATOM      1  O   HOH     1      28.082  17.338  27.774  0.00  0.00    +0.000 OA
ENDROOT
TORSDOF 0
REMARK  Name = ../refined-set-2016/4h3f/4h3f_pocket.pdb
REMARK  222 active torsions:
REMARK  status: ('A' for Active; 'I' for Inactive)
REMARK    1  A    between atoms: _1  and  _3
REMARK    2  A    between atoms: _3  and  _4
REMARK    3  A    between atoms: _3  and  _6
REMARK    4  A    between atoms: _6  and  _7
REMARK    5  A    between atoms: _7  and  _8
REMARK    6  A    between atoms: _8  and  _9
REMARK    7  A    between atoms: _9  and  _10
REMARK    8  A    between atoms: _14  and  _16
REMARK    9  A    between atoms: _16  and  _17
REMARK   10  A    between atoms: _16  and  _19
REMARK   11  A    between atoms: _19  and  _20
REMARK   12  A    between atoms: _22  and  _24
REMARK   13  A    between atoms: _24  and  _25
REMARK   14  A    between atoms: _27  and  _29
REMARK   15  A    between atoms: _29  and  _30
REMARK   16  A    between atoms: _29  and  _32
REMARK   17  A    between atoms: _32  and  _33
REMARK   18  A    between atoms: _33  and  _34
REMARK   19  A    between atoms: _39  and  _41
REMARK   20  A    between atoms: _41  and  _42
REMARK   21  A    between atoms: _44  and  _46
REMARK   22  A    between atoms: _46  and  _47
REMARK   23  A    between atoms: _46  and  _49
REMARK   24  A    between atoms: _49  and  _50
REMARK   25  A    between atoms: _55  and  _56
REMARK   26  A    between atoms: _58  and  _60
REMARK   27  A    between atoms: _60  and  _61
REMARK   28  A    between atoms: _60  and  _63
REMARK   29  A    between atoms: _63  and  _64
REMARK   30  A    between atoms: _67  and  _69
REMARK   31  A    between atoms: _69  and  _70
REMARK   32  A    between atoms: _69  and  _72
REMARK   33  A    between atoms: _75  and  _77
REMARK   34  A    between atoms: _77  and  _78
REMARK   35  A    between atoms: _77  and  _80
REMARK   36  A    between atoms: _80  and  _81
REMARK   37  A    between atoms: _84  and  _86
REMARK   38  A    between atoms: _86  and  _87
REMARK   39  A    between atoms: _86  and  _89
REMARK   40  A    between atoms: _89  and  _90
REMARK   41  A    between atoms: _93  and  _95
REMARK   42  A    between atoms: _95  and  _96
REMARK   43  A    between atoms: _98  and  _100
REMARK   44  A    between atoms: _100  and  _101
REMARK   45  A    between atoms: _100  and  _103
REMARK   46  A    between atoms: _103  and  _104
REMARK   47  A    between atoms: _106  and  _108
REMARK   48  A    between atoms: _108  and  _109
REMARK   49  A    between atoms: _108  and  _111
REMARK   50  A    between atoms: _111  and  _112
REMARK   51  A    between atoms: _114  and  _116
REMARK   52  A    between atoms: _116  and  _117
REMARK   53  A    between atoms: _116  and  _119
REMARK   54  A    between atoms: _119  and  _120
REMARK   55  A    between atoms: _125  and  _127
REMARK   56  A    between atoms: _127  and  _128
REMARK   57  A    between atoms: _127  and  _130
REMARK   58  A    between atoms: _130  and  _131
REMARK   59  A    between atoms: _137  and  _139
REMARK   60  A    between atoms: _139  and  _140
REMARK   61  A    between atoms: _143  and  _145
REMARK   62  A    between atoms: _145  and  _146
REMARK   63  A    between atoms: _145  and  _148
REMARK   64  A    between atoms: _151  and  _153
REMARK   65  A    between atoms: _153  and  _154
REMARK   66  A    between atoms: _153  and  _156
REMARK   67  A    between atoms: _159  and  _161
REMARK   68  A    between atoms: _161  and  _162
REMARK   69  A    between atoms: _161  and  _164
REMARK   70  A    between atoms: _164  and  _165
REMARK   71  A    between atoms: _170  and  _171
REMARK   72  A    between atoms: _173  and  _175
REMARK   73  A    between atoms: _175  and  _176
REMARK   74  A    between atoms: _175  and  _178
REMARK   75  A    between atoms: _182  and  _183
REMARK   76  A    between atoms: _188  and  _190
REMARK   77  A    between atoms: _190  and  _191
REMARK   78  A    between atoms: _190  and  _193
REMARK   79  A    between atoms: _193  and  _194
REMARK   80  A    between atoms: _199  and  _200
REMARK   81  A    between atoms: _202  and  _204
REMARK   82  A    between atoms: _204  and  _205
REMARK   83  A    between atoms: _204  and  _207
REMARK   84  A    between atoms: _207  and  _208
REMARK   85  A    between atoms: _211  and  _213
REMARK   86  A    between atoms: _213  and  _214
REMARK   87  A    between atoms: _213  and  _216
REMARK   88  A    between atoms: _216  and  _217
REMARK   89  A    between atoms: _217  and  _218
REMARK   90  A    between atoms: _223  and  _225
REMARK   91  A    between atoms: _225  and  _226
REMARK   92  A    between atoms: _228  and  _230
REMARK   93  A    between atoms: _230  and  _231
REMARK   94  A    between atoms: _230  and  _233
REMARK   95  A    between atoms: _233  and  _234
REMARK   96  A    between atoms: _234  and  _235
REMARK   97  A    between atoms: _235  and  _236
REMARK   98  A    between atoms: _236  and  _237
REMARK   99  A    between atoms: _241  and  _243
REMARK  100  A    between atoms: _243  and  _244
REMARK  101  A    between atoms: _243  and  _246
REMARK  102  A    between atoms: _246  and  _247
REMARK  103  A    between atoms: _257  and  _259
REMARK  104  A    between atoms: _259  and  _260
REMARK  105  A    between atoms: _263  and  _265
REMARK  106  A    between atoms: _265  and  _266
REMARK  107  A    between atoms: _265  and  _268
REMARK  108  A    between atoms: _268  and  _269
REMARK  109  A    between atoms: _272  and  _274
REMARK  110  A    between atoms: _274  and  _275
REMARK  111  A    between atoms: _274  and  _277
REMARK  112  A    between atoms: _277  and  _278
REMARK  113  A    between atoms: _281  and  _283
REMARK  114  A    between atoms: _283  and  _284
REMARK  115  A    between atoms: _283  and  _286
REMARK  116  A    between atoms: _286  and  _287
REMARK  117  A    between atoms: _287  and  _288
REMARK  118  A    between atoms: _288  and  _289
REMARK  119  A    between atoms: _289  and  _290
REMARK  120  A    between atoms: _294  and  _296
REMARK  121  A    between atoms: _296  and  _297
REMARK  122  A    between atoms: _296  and  _299
REMARK  123  A    between atoms: _299  and  _300
REMARK  124  A    between atoms: _306  and  _308
REMARK  125  A    between atoms: _308  and  _309
REMARK  126  A    between atoms: _308  and  _311
REMARK  127  A    between atoms: _311  and  _312
REMARK  128  A    between atoms: _318  and  _320
REMARK  129  A    between atoms: _320  and  _321
REMARK  130  A    between atoms: _320  and  _323
REMARK  131  A    between atoms: _323  and  _324
REMARK  132  A    between atoms: _327  and  _329
REMARK  133  A    between atoms: _329  and  _330
REMARK  134  A    between atoms: _329  and  _332
REMARK  135  A    between atoms: _332  and  _333
REMARK  136  A    between atoms: _335  and  _337
REMARK  137  A    between atoms: _337  and  _338
REMARK  138  A    between atoms: _337  and  _340
REMARK  139  A    between atoms: _340  and  _341
REMARK  140  A    between atoms: _351  and  _353
REMARK  141  A    between atoms: _353  and  _354
REMARK  142  A    between atoms: _356  and  _358
REMARK  143  A    between atoms: _358  and  _359
REMARK  144  A    between atoms: _358  and  _361
REMARK  145  A    between atoms: _361  and  _362
REMARK  146  A    between atoms: _365  and  _367
REMARK  147  A    between atoms: _367  and  _368
REMARK  148  A    between atoms: _367  and  _370
REMARK  149  A    between atoms: _370  and  _371
REMARK  150  A    between atoms: _374  and  _376
REMARK  151  A    between atoms: _376  and  _377
REMARK  152  A    between atoms: _379  and  _381
REMARK  153  A    between atoms: _381  and  _382
REMARK  154  A    between atoms: _381  and  _384
REMARK  155  A    between atoms: _384  and  _385
REMARK  156  A    between atoms: _388  and  _390
REMARK  157  A    between atoms: _390  and  _391
REMARK  158  A    between atoms: _390  and  _393
REMARK  159  A    between atoms: _393  and  _394
REMARK  160  A    between atoms: _397  and  _399
REMARK  161  A    between atoms: _399  and  _400
REMARK  162  A    between atoms: _403  and  _405
REMARK  163  A    between atoms: _405  and  _406
REMARK  164  A    between atoms: _405  and  _408
REMARK  165  A    between atoms: _408  and  _409
REMARK  166  A    between atoms: _409  and  _410
REMARK  167  A    between atoms: _410  and  _411
REMARK  168  A    between atoms: _421  and  _422
REMARK  169  A    between atoms: _427  and  _429
REMARK  170  A    between atoms: _429  and  _430
REMARK  171  A    between atoms: _429  and  _432
REMARK  172  A    between atoms: _432  and  _433
REMARK  173  A    between atoms: _436  and  _438
REMARK  174  A    between atoms: _438  and  _439
REMARK  175  A    between atoms: _438  and  _441
REMARK  176  A    between atoms: _441  and  _442
REMARK  177  A    between atoms: _447  and  _448
REMARK  178  A    between atoms: _450  and  _452
REMARK  179  A    between atoms: _452  and  _453
REMARK  180  A    between atoms: _452  and  _455
REMARK  181  A    between atoms: _455  and  _456
REMARK  182  A    between atoms: _459  and  _461
REMARK  183  A    between atoms: _461  and  _462
REMARK  184  A    between atoms: _461  and  _464
REMARK  185  A    between atoms: _467  and  _469
REMARK  186  A    between atoms: _469  and  _470
REMARK  187  A    between atoms: _469  and  _472
REMARK  188  A    between atoms: _472  and  _473
REMARK  189  A    between atoms: _476  and  _478
REMARK  190  A    between atoms: _478  and  _479
REMARK  191  A    between atoms: _478  and  _481
REMARK  192  A    between atoms: _481  and  _482
REMARK  193  A    between atoms: _484  and  _486
REMARK  194  A    between atoms: _486  and  _487
REMARK  195  A    between atoms: _489  and  _491
REMARK  196  A    between atoms: _491  and  _492
REMARK  197  A    between atoms: _491  and  _494
REMARK  198  A    between atoms: _494  and  _495
REMARK  199  A    between atoms: _498  and  _500
REMARK  200  A    between atoms: _500  and  _501
REMARK  201  A    between atoms: _500  and  _503
REMARK  202  A    between atoms: _503  and  _504
REMARK  203  A    between atoms: _507  and  _509
REMARK  204  A    between atoms: _509  and  _510
REMARK  205  A    between atoms: _509  and  _512
REMARK  206  A    between atoms: _512  and  _513
REMARK  207  A    between atoms: _518  and  _520
REMARK  208  A    between atoms: _520  and  _521
REMARK  209  A    between atoms: _520  and  _523
REMARK  210  A    between atoms: _523  and  _524
REMARK  211  A    between atoms: _524  and  _525
REMARK  212  A    between atoms: _525  and  _526
REMARK  213  A    between atoms: _535  and  _537
REMARK  214  A    between atoms: _537  and  _538
REMARK  215  A    between atoms: _537  and  _540
REMARK  216  A    between atoms: _543  and  _545
REMARK  217  A    between atoms: _545  and  _546
REMARK  218  A    between atoms: _548  and  _550
REMARK  219  A    between atoms: _550  and  _551
REMARK  220  A    between atoms: _554  and  _556
REMARK  221  A    between atoms: _556  and  _557
REMARK  222  A    between atoms: _556  and  _559
REMARK                            x       y       z     vdW  Elec       q    Type
REMARK                         _______ _______ _______ _____ _____    ______ ____
ROOT
ATOM      1  O   HOH     1      26.598  17.025  25.317  0.00  0.00    +0.000 OA
ENDROOT
TORSDOF 0
REMARK  Name = ../refined-set-2016/4h3f/4h3f_pocket.pdb
REMARK  222 active torsions:
REMARK  status: ('A' for Active; 'I' for Inactive)
REMARK    1  A    between atoms: _1  and  _3
REMARK    2  A    between atoms: _3  and  _4
REMARK    3  A    between atoms: _3  and  _6
REMARK    4  A    between atoms: _6  and  _7
REMARK    5  A    between atoms: _7  and  _8
REMARK    6  A    between atoms: _8  and  _9
REMARK    7  A    between atoms: _9  and  _10
REMARK    8  A    between atoms: _14  and  _16
REMARK    9  A    between atoms: _16  and  _17
REMARK   10  A    between atoms: _16  and  _19
REMARK   11  A    between atoms: _19  and  _20
REMARK   12  A    between atoms: _22  and  _24
REMARK   13  A    between atoms: _24  and  _25
REMARK   14  A    between atoms: _27  and  _29
REMARK   15  A    between atoms: _29  and  _30
REMARK   16  A    between atoms: _29  and  _32
REMARK   17  A    between atoms: _32  and  _33
REMARK   18  A    between atoms: _33  and  _34
REMARK   19  A    between atoms: _39  and  _41
REMARK   20  A    between atoms: _41  and  _42
REMARK   21  A    between atoms: _44  and  _46
REMARK   22  A    between atoms: _46  and  _47
REMARK   23  A    between atoms: _46  and  _49
REMARK   24  A    between atoms: _49  and  _50
REMARK   25  A    between atoms: _55  and  _56
REMARK   26  A    between atoms: _58  and  _60
REMARK   27  A    between atoms: _60  and  _61
REMARK   28  A    between atoms: _60  and  _63
REMARK   29  A    between atoms: _63  and  _64
REMARK   30  A    between atoms: _67  and  _69
REMARK   31  A    between atoms: _69  and  _70
REMARK   32  A    between atoms: _69  and  _72
REMARK   33  A    between atoms: _75  and  _77
REMARK   34  A    between atoms: _77  and  _78
REMARK   35  A    between atoms: _77  and  _80
REMARK   36  A    between atoms: _80  and  _81
REMARK   37  A    between atoms: _84  and  _86
REMARK   38  A    between atoms: _86  and  _87
REMARK   39  A    between atoms: _86  and  _89
REMARK   40  A    between atoms: _89  and  _90
REMARK   41  A    between atoms: _93  and  _95
REMARK   42  A    between atoms: _95  and  _96
REMARK   43  A    between atoms: _98  and  _100
REMARK   44  A    between atoms: _100  and  _101
REMARK   45  A    between atoms: _100  and  _103
REMARK   46  A    between atoms: _103  and  _104
REMARK   47  A    between atoms: _106  and  _108
REMARK   48  A    between atoms: _108  and  _109
REMARK   49  A    between atoms: _108  and  _111
REMARK   50  A    between atoms: _111  and  _112
REMARK   51  A    between atoms: _114  and  _116
REMARK   52  A    between atoms: _116  and  _117
REMARK   53  A    between atoms: _116  and  _119
REMARK   54  A    between atoms: _119  and  _120
REMARK   55  A    between atoms: _125  and  _127
REMARK   56  A    between atoms: _127  and  _128
REMARK   57  A    between atoms: _127  and  _130
REMARK   58  A    between atoms: _130  and  _131
REMARK   59  A    between atoms: _137  and  _139
REMARK   60  A    between atoms: _139  and  _140
REMARK   61  A    between atoms: _143  and  _145
REMARK   62  A    between atoms: _145  and  _146
REMARK   63  A    between atoms: _145  and  _148
REMARK   64  A    between atoms: _151  and  _153
REMARK   65  A    between atoms: _153  and  _154
REMARK   66  A    between atoms: _153  and  _156
REMARK   67  A    between atoms: _159  and  _161
REMARK   68  A    between atoms: _161  and  _162
REMARK   69  A    between atoms: _161  and  _164
REMARK   70  A    between atoms: _164  and  _165
REMARK   71  A    between atoms: _170  and  _171
REMARK   72  A    between atoms: _173  and  _175
REMARK   73  A    between atoms: _175  and  _176
REMARK   74  A    between atoms: _175  and  _178
REMARK   75  A    between atoms: _182  and  _183
REMARK   76  A    between atoms: _188  and  _190
REMARK   77  A    between atoms: _190  and  _191
REMARK   78  A    between atoms: _190  and  _193
REMARK   79  A    between atoms: _193  and  _194
REMARK   80  A    between atoms: _199  and  _200
REMARK   81  A    between atoms: _202  and  _204
REMARK   82  A    between atoms: _204  and  _205
REMARK   83  A    between atoms: _204  and  _207
REMARK   84  A    between atoms: _207  and  _208
REMARK   85  A    between atoms: _211  and  _213
REMARK   86  A    between atoms: _213  and  _214
REMARK   87  A    between atoms: _213  and  _216
REMARK   88  A    between atoms: _216  and  _217
REMARK   89  A    between atoms: _217  and  _218
REMARK   90  A    between atoms: _223  and  _225
REMARK   91  A    between atoms: _225  and  _226
REMARK   92  A    between atoms: _228  and  _230
REMARK   93  A    between atoms: _230  and  _231
REMARK   94  A    between atoms: _230  and  _233
REMARK   95  A    between atoms: _233  and  _234
REMARK   96  A    between atoms: _234  and  _235
REMARK   97  A    between atoms: _235  and  _236
REMARK   98  A    between atoms: _236  and  _237
REMARK   99  A    between atoms: _241  and  _243
REMARK  100  A    between atoms: _243  and  _244
REMARK  101  A    between atoms: _243  and  _246
REMARK  102  A    between atoms: _246  and  _247
REMARK  103  A    between atoms: _257  and  _259
REMARK  104  A    between atoms: _259  and  _260
REMARK  105  A    between atoms: _263  and  _265
REMARK  106  A    between atoms: _265  and  _266
REMARK  107  A    between atoms: _265  and  _268
REMARK  108  A    between atoms: _268  and  _269
REMARK  109  A    between atoms: _272  and  _274
REMARK  110  A    between atoms: _274  and  _275
REMARK  111  A    between atoms: _274  and  _277
REMARK  112  A    between atoms: _277  and  _278
REMARK  113  A    between atoms: _281  and  _283
REMARK  114  A    between atoms: _283  and  _284
REMARK  115  A    between atoms: _283  and  _286
REMARK  116  A    between atoms: _286  and  _287
REMARK  117  A    between atoms: _287  and  _288
REMARK  118  A    between atoms: _288  and  _289
REMARK  119  A    between atoms: _289  and  _290
REMARK  120  A    between atoms: _294  and  _296
REMARK  121  A    between atoms: _296  and  _297
REMARK  122  A    between atoms: _296  and  _299
REMARK  123  A    between atoms: _299  and  _300
REMARK  124  A    between atoms: _306  and  _308
REMARK  125  A    between atoms: _308  and  _309
REMARK  126  A    between atoms: _308  and  _311
REMARK  127  A    between atoms: _311  and  _312
REMARK  128  A    between atoms: _318  and  _320
REMARK  129  A    between atoms: _320  and  _321
REMARK  130  A    between atoms: _320  and  _323
REMARK  131  A    between atoms: _323  and  _324
REMARK  132  A    between atoms: _327  and  _329
REMARK  133  A    between atoms: _329  and  _330
REMARK  134  A    between atoms: _329  and  _332
REMARK  135  A    between atoms: _332  and  _333
REMARK  136  A    between atoms: _335  and  _337
REMARK  137  A    between atoms: _337  and  _338
REMARK  138  A    between atoms: _337  and  _340
REMARK  139  A    between atoms: _340  and  _341
REMARK  140  A    between atoms: _351  and  _353
REMARK  141  A    between atoms: _353  and  _354
REMARK  142  A    between atoms: _356  and  _358
REMARK  143  A    between atoms: _358  and  _359
REMARK  144  A    between atoms: _358  and  _361
REMARK  145  A    between atoms: _361  and  _362
REMARK  146  A    between atoms: _365  and  _367
REMARK  147  A    between atoms: _367  and  _368
REMARK  148  A    between atoms: _367  and  _370
REMARK  149  A    between atoms: _370  and  _371
REMARK  150  A    between atoms: _374  and  _376
REMARK  151  A    between atoms: _376  and  _377
REMARK  152  A    between atoms: _379  and  _381
REMARK  153  A    between atoms: _381  and  _382
REMARK  154  A    between atoms: _381  and  _384
REMARK  155  A    between atoms: _384  and  _385
REMARK  156  A    between atoms: _388  and  _390
REMARK  157  A    between atoms: _390  and  _391
REMARK  158  A    between atoms: _390  and  _393
REMARK  159  A    between atoms: _393  and  _394
REMARK  160  A    between atoms: _397  and  _399
REMARK  161  A    between atoms: _399  and  _400
REMARK  162  A    between atoms: _403  and  _405
REMARK  163  A    between atoms: _405  and  _406
REMARK  164  A    between atoms: _405  and  _408
REMARK  165  A    between atoms: _408  and  _409
REMARK  166  A    between atoms: _409  and  _410
REMARK  167  A    between atoms: _410  and  _411
REMARK  168  A    between atoms: _421  and  _422
REMARK  169  A    between atoms: _427  and  _429
REMARK  170  A    between atoms: _429  and  _430
REMARK  171  A    between atoms: _429  and  _432
REMARK  172  A    between atoms: _432  and  _433
REMARK  173  A    between atoms: _436  and  _438
REMARK  174  A    between atoms: _438  and  _439
REMARK  175  A    between atoms: _438  and  _441
REMARK  176  A    between atoms: _441  and  _442
REMARK  177  A    between atoms: _447  and  _448
REMARK  178  A    between atoms: _450  and  _452
REMARK  179  A    between atoms: _452  and  _453
REMARK  180  A    between atoms: _452  and  _455
REMARK  181  A    between atoms: _455  and  _456
REMARK  182  A    between atoms: _459  and  _461
REMARK  183  A    between atoms: _461  and  _462
REMARK  184  A    between atoms: _461  and  _464
REMARK  185  A    between atoms: _467  and  _469
REMARK  186  A    between atoms: _469  and  _470
REMARK  187  A    between atoms: _469  and  _472
REMARK  188  A    between atoms: _472  and  _473
REMARK  189  A    between atoms: _476  and  _478
REMARK  190  A    between atoms: _478  and  _479
REMARK  191  A    between atoms: _478  and  _481
REMARK  192  A    between atoms: _481  and  _482
REMARK  193  A    between atoms: _484  and  _486
REMARK  194  A    between atoms: _486  and  _487
REMARK  195  A    between atoms: _489  and  _491
REMARK  196  A    between atoms: _491  and  _492
REMARK  197  A    between atoms: _491  and  _494
REMARK  198  A    between atoms: _494  and  _495
REMARK  199  A    between atoms: _498  and  _500
REMARK  200  A    between atoms: _500  and  _501
REMARK  201  A    between atoms: _500  and  _503
REMARK  202  A    between atoms: _503  and  _504
REMARK  203  A    between atoms: _507  and  _509
REMARK  204  A    between atoms: _509  and  _510
REMARK  205  A    between atoms: _509  and  _512
REMARK  206  A    between atoms: _512  and  _513
REMARK  207  A    between atoms: _518  and  _520
REMARK  208  A    between atoms: _520  and  _521
REMARK  209  A    between atoms: _520  and  _523
REMARK  210  A    between atoms: _523  and  _524
REMARK  211  A    between atoms: _524  and  _525
REMARK  212  A    between atoms: _525  and  _526
REMARK  213  A    between atoms: _535  and  _537
REMARK  214  A    between atoms: _537  and  _538
REMARK  215  A    between atoms: _537  and  _540
REMARK  216  A    between atoms: _543  and  _545
REMARK  217  A    between atoms: _545  and  _546
REMARK  218  A    between atoms: _548  and  _550
REMARK  219  A    between atoms: _550  and  _551
REMARK  220  A    between atoms: _554  and  _556
REMARK  221  A    between atoms: _556  and  _557
REMARK  222  A    between atoms: _556  and  _559
REMARK                            x       y       z     vdW  Elec       q    Type
REMARK                         _______ _______ _______ _____ _____    ______ ____
ROOT
ATOM      1  O   HOH     1      31.114   7.177  24.658  0.00  0.00    +0.000 OA
ENDROOT
TORSDOF 0
REMARK  Name = ../refined-set-2016/4h3f/4h3f_pocket.pdb
REMARK  222 active torsions:
REMARK  status: ('A' for Active; 'I' for Inactive)
REMARK    1  A    between atoms: _1  and  _3
REMARK    2  A    between atoms: _3  and  _4
REMARK    3  A    between atoms: _3  and  _6
REMARK    4  A    between atoms: _6  and  _7
REMARK    5  A    between atoms: _7  and  _8
REMARK    6  A    between atoms: _8  and  _9
REMARK    7  A    between atoms: _9  and  _10
REMARK    8  A    between atoms: _14  and  _16
REMARK    9  A    between atoms: _16  and  _17
REMARK   10  A    between atoms: _16  and  _19
REMARK   11  A    between atoms: _19  and  _20
REMARK   12  A    between atoms: _22  and  _24
REMARK   13  A    between atoms: _24  and  _25
REMARK   14  A    between atoms: _27  and  _29
REMARK   15  A    between atoms: _29  and  _30
REMARK   16  A    between atoms: _29  and  _32
REMARK   17  A    between atoms: _32  and  _33
REMARK   18  A    between atoms: _33  and  _34
REMARK   19  A    between atoms: _39  and  _41
REMARK   20  A    between atoms: _41  and  _42
REMARK   21  A    between atoms: _44  and  _46
REMARK   22  A    between atoms: _46  and  _47
REMARK   23  A    between atoms: _46  and  _49
REMARK   24  A    between atoms: _49  and  _50
REMARK   25  A    between atoms: _55  and  _56
REMARK   26  A    between atoms: _58  and  _60
REMARK   27  A    between atoms: _60  and  _61
REMARK   28  A    between atoms: _60  and  _63
REMARK   29  A    between atoms: _63  and  _64
REMARK   30  A    between atoms: _67  and  _69
REMARK   31  A    between atoms: _69  and  _70
REMARK   32  A    between atoms: _69  and  _72
REMARK   33  A    between atoms: _75  and  _77
REMARK   34  A    between atoms: _77  and  _78
REMARK   35  A    between atoms: _77  and  _80
REMARK   36  A    between atoms: _80  and  _81
REMARK   37  A    between atoms: _84  and  _86
REMARK   38  A    between atoms: _86  and  _87
REMARK   39  A    between atoms: _86  and  _89
REMARK   40  A    between atoms: _89  and  _90
REMARK   41  A    between atoms: _93  and  _95
REMARK   42  A    between atoms: _95  and  _96
REMARK   43  A    between atoms: _98  and  _100
REMARK   44  A    between atoms: _100  and  _101
REMARK   45  A    between atoms: _100  and  _103
REMARK   46  A    between atoms: _103  and  _104
REMARK   47  A    between atoms: _106  and  _108
REMARK   48  A    between atoms: _108  and  _109
REMARK   49  A    between atoms: _108  and  _111
REMARK   50  A    between atoms: _111  and  _112
REMARK   51  A    between atoms: _114  and  _116
REMARK   52  A    between atoms: _116  and  _117
REMARK   53  A    between atoms: _116  and  _119
REMARK   54  A    between atoms: _119  and  _120
REMARK   55  A    between atoms: _125  and  _127
REMARK   56  A    between atoms: _127  and  _128
REMARK   57  A    between atoms: _127  and  _130
REMARK   58  A    between atoms: _130  and  _131
REMARK   59  A    between atoms: _137  and  _139
REMARK   60  A    between atoms: _139  and  _140
REMARK   61  A    between atoms: _143  and  _145
REMARK   62  A    between atoms: _145  and  _146
REMARK   63  A    between atoms: _145  and  _148
REMARK   64  A    between atoms: _151  and  _153
REMARK   65  A    between atoms: _153  and  _154
REMARK   66  A    between atoms: _153  and  _156
REMARK   67  A    between atoms: _159  and  _161
REMARK   68  A    between atoms: _161  and  _162
REMARK   69  A    between atoms: _161  and  _164
REMARK   70  A    between atoms: _164  and  _165
REMARK   71  A    between atoms: _170  and  _171
REMARK   72  A    between atoms: _173  and  _175
REMARK   73  A    between atoms: _175  and  _176
REMARK   74  A    between atoms: _175  and  _178
REMARK   75  A    between atoms: _182  and  _183
REMARK   76  A    between atoms: _188  and  _190
REMARK   77  A    between atoms: _190  and  _191
REMARK   78  A    between atoms: _190  and  _193
REMARK   79  A    between atoms: _193  and  _194
REMARK   80  A    between atoms: _199  and  _200
REMARK   81  A    between atoms: _202  and  _204
REMARK   82  A    between atoms: _204  and  _205
REMARK   83  A    between atoms: _204  and  _207
REMARK   84  A    between atoms: _207  and  _208
REMARK   85  A    between atoms: _211  and  _213
REMARK   86  A    between atoms: _213  and  _214
REMARK   87  A    between atoms: _213  and  _216
REMARK   88  A    between atoms: _216  and  _217
REMARK   89  A    between atoms: _217  and  _218
REMARK   90  A    between atoms: _223  and  _225
REMARK   91  A    between atoms: _225  and  _226
REMARK   92  A    between atoms: _228  and  _230
REMARK   93  A    between atoms: _230  and  _231
REMARK   94  A    between atoms: _230  and  _233
REMARK   95  A    between atoms: _233  and  _234
REMARK   96  A    between atoms: _234  and  _235
REMARK   97  A    between atoms: _235  and  _236
REMARK   98  A    between atoms: _236  and  _237
REMARK   99  A    between atoms: _241  and  _243
REMARK  100  A    between atoms: _243  and  _244
REMARK  101  A    between atoms: _243  and  _246
REMARK  102  A    between atoms: _246  and  _247
REMARK  103  A    between atoms: _257  and  _259
REMARK  104  A    between atoms: _259  and  _260
REMARK  105  A    between atoms: _263  and  _265
REMARK  106  A    between atoms: _265  and  _266
REMARK  107  A    between atoms: _265  and  _268
REMARK  108  A    between atoms: _268  and  _269
REMARK  109  A    between atoms: _272  and  _274
REMARK  110  A    between atoms: _274  and  _275
REMARK  111  A    between atoms: _274  and  _277
REMARK  112  A    between atoms: _277  and  _278
REMARK  113  A    between atoms: _281  and  _283
REMARK  114  A    between atoms: _283  and  _284
REMARK  115  A    between atoms: _283  and  _286
REMARK  116  A    between atoms: _286  and  _287
REMARK  117  A    between atoms: _287  and  _288
REMARK  118  A    between atoms: _288  and  _289
REMARK  119  A    between atoms: _289  and  _290
REMARK  120  A    between atoms: _294  and  _296
REMARK  121  A    between atoms: _296  and  _297
REMARK  122  A    between atoms: _296  and  _299
REMARK  123  A    between atoms: _299  and  _300
REMARK  124  A    between atoms: _306  and  _308
REMARK  125  A    between atoms: _308  and  _309
REMARK  126  A    between atoms: _308  and  _311
REMARK  127  A    between atoms: _311  and  _312
REMARK  128  A    between atoms: _318  and  _320
REMARK  129  A    between atoms: _320  and  _321
REMARK  130  A    between atoms: _320  and  _323
REMARK  131  A    between atoms: _323  and  _324
REMARK  132  A    between atoms: _327  and  _329
REMARK  133  A    between atoms: _329  and  _330
REMARK  134  A    between atoms: _329  and  _332
REMARK  135  A    between atoms: _332  and  _333
REMARK  136  A    between atoms: _335  and  _337
REMARK  137  A    between atoms: _337  and  _338
REMARK  138  A    between atoms: _337  and  _340
REMARK  139  A    between atoms: _340  and  _341
REMARK  140  A    between atoms: _351  and  _353
REMARK  141  A    between atoms: _353  and  _354
REMARK  142  A    between atoms: _356  and  _358
REMARK  143  A    between atoms: _358  and  _359
REMARK  144  A    between atoms: _358  and  _361
REMARK  145  A    between atoms: _361  and  _362
REMARK  146  A    between atoms: _365  and  _367
REMARK  147  A    between atoms: _367  and  _368
REMARK  148  A    between atoms: _367  and  _370
REMARK  149  A    between atoms: _370  and  _371
REMARK  150  A    between atoms: _374  and  _376
REMARK  151  A    between atoms: _376  and  _377
REMARK  152  A    between atoms: _379  and  _381
REMARK  153  A    between atoms: _381  and  _382
REMARK  154  A    between atoms: _381  and  _384
REMARK  155  A    between atoms: _384  and  _385
REMARK  156  A    between atoms: _388  and  _390
REMARK  157  A    between atoms: _390  and  _391
REMARK  158  A    between atoms: _390  and  _393
REMARK  159  A    between atoms: _393  and  _394
REMARK  160  A    between atoms: _397  and  _399
REMARK  161  A    between atoms: _399  and  _400
REMARK  162  A    between atoms: _403  and  _405
REMARK  163  A    between atoms: _405  and  _406
REMARK  164  A    between atoms: _405  and  _408
REMARK  165  A    between atoms: _408  and  _409
REMARK  166  A    between atoms: _409  and  _410
REMARK  167  A    between atoms: _410  and  _411
REMARK  168  A    between atoms: _421  and  _422
REMARK  169  A    between atoms: _427  and  _429
REMARK  170  A    between atoms: _429  and  _430
REMARK  171  A    between atoms: _429  and  _432
REMARK  172  A    between atoms: _432  and  _433
REMARK  173  A    between atoms: _436  and  _438
REMARK  174  A    between atoms: _438  and  _439
REMARK  175  A    between atoms: _438  and  _441
REMARK  176  A    between atoms: _441  and  _442
REMARK  177  A    between atoms: _447  and  _448
REMARK  178  A    between atoms: _450  and  _452
REMARK  179  A    between atoms: _452  and  _453
REMARK  180  A    between atoms: _452  and  _455
REMARK  181  A    between atoms: _455  and  _456
REMARK  182  A    between atoms: _459  and  _461
REMARK  183  A    between atoms: _461  and  _462
REMARK  184  A    between atoms: _461  and  _464
REMARK  185  A    between atoms: _467  and  _469
REMARK  186  A    between atoms: _469  and  _470
REMARK  187  A    between atoms: _469  and  _472
REMARK  188  A    between atoms: _472  and  _473
REMARK  189  A    between atoms: _476  and  _478
REMARK  190  A    between atoms: _478  and  _479
REMARK  191  A    between atoms: _478  and  _481
REMARK  192  A    between atoms: _481  and  _482
REMARK  193  A    between atoms: _484  and  _486
REMARK  194  A    between atoms: _486  and  _487
REMARK  195  A    between atoms: _489  and  _491
REMARK  196  A    between atoms: _491  and  _492
REMARK  197  A    between atoms: _491  and  _494
REMARK  198  A    between atoms: _494  and  _495
REMARK  199  A    between atoms: _498  and  _500
REMARK  200  A    between atoms: _500  and  _501
REMARK  201  A    between atoms: _500  and  _503
REMARK  202  A    between atoms: _503  and  _504
REMARK  203  A    between atoms: _507  and  _509
REMARK  204  A    between atoms: _509  and  _510
REMARK  205  A    between atoms: _509  and  _512
REMARK  206  A    between atoms: _512  and  _513
REMARK  207  A    between atoms: _518  and  _520
REMARK  208  A    between atoms: _520  and  _521
REMARK  209  A    between atoms: _520  and  _523
REMARK  210  A    between atoms: _523  and  _524
REMARK  211  A    between atoms: _524  and  _525
REMARK  212  A    between atoms: _525  and  _526
REMARK  213  A    between atoms: _535  and  _537
REMARK  214  A    between atoms: _537  and  _538
REMARK  215  A    between atoms: _537  and  _540
REMARK  216  A    between atoms: _543  and  _545
REMARK  217  A    between atoms: _545  and  _546
REMARK  218  A    between atoms: _548  and  _550
REMARK  219  A    between atoms: _550  and  _551
REMARK  220  A    between atoms: _554  and  _556
REMARK  221  A    between atoms: _556  and  _557
REMARK  222  A    between atoms: _556  and  _559
REMARK                            x       y       z     vdW  Elec       q    Type
REMARK                         _______ _______ _______ _____ _____    ______ ____
ROOT
ATOM      1  O   HOH     1      13.887   9.287  24.496  0.00  0.00    +0.000 OA
ENDROOT
TORSDOF 0
REMARK  Name = ../refined-set-2016/4h3f/4h3f_pocket.pdb
REMARK  222 active torsions:
REMARK  status: ('A' for Active; 'I' for Inactive)
REMARK    1  A    between atoms: _1  and  _3
REMARK    2  A    between atoms: _3  and  _4
REMARK    3  A    between atoms: _3  and  _6
REMARK    4  A    between atoms: _6  and  _7
REMARK    5  A    between atoms: _7  and  _8
REMARK    6  A    between atoms: _8  and  _9
REMARK    7  A    between atoms: _9  and  _10
REMARK    8  A    between atoms: _14  and  _16
REMARK    9  A    between atoms: _16  and  _17
REMARK   10  A    between atoms: _16  and  _19
REMARK   11  A    between atoms: _19  and  _20
REMARK   12  A    between atoms: _22  and  _24
REMARK   13  A    between atoms: _24  and  _25
REMARK   14  A    between atoms: _27  and  _29
REMARK   15  A    between atoms: _29  and  _30
REMARK   16  A    between atoms: _29  and  _32
REMARK   17  A    between atoms: _32  and  _33
REMARK   18  A    between atoms: _33  and  _34
REMARK   19  A    between atoms: _39  and  _41
REMARK   20  A    between atoms: _41  and  _42
REMARK   21  A    between atoms: _44  and  _46
REMARK   22  A    between atoms: _46  and  _47
REMARK   23  A    between atoms: _46  and  _49
REMARK   24  A    between atoms: _49  and  _50
REMARK   25  A    between atoms: _55  and  _56
REMARK   26  A    between atoms: _58  and  _60
REMARK   27  A    between atoms: _60  and  _61
REMARK   28  A    between atoms: _60  and  _63
REMARK   29  A    between atoms: _63  and  _64
REMARK   30  A    between atoms: _67  and  _69
REMARK   31  A    between atoms: _69  and  _70
REMARK   32  A    between atoms: _69  and  _72
REMARK   33  A    between atoms: _75  and  _77
REMARK   34  A    between atoms: _77  and  _78
REMARK   35  A    between atoms: _77  and  _80
REMARK   36  A    between atoms: _80  and  _81
REMARK   37  A    between atoms: _84  and  _86
REMARK   38  A    between atoms: _86  and  _87
REMARK   39  A    between atoms: _86  and  _89
REMARK   40  A    between atoms: _89  and  _90
REMARK   41  A    between atoms: _93  and  _95
REMARK   42  A    between atoms: _95  and  _96
REMARK   43  A    between atoms: _98  and  _100
REMARK   44  A    between atoms: _100  and  _101
REMARK   45  A    between atoms: _100  and  _103
REMARK   46  A    between atoms: _103  and  _104
REMARK   47  A    between atoms: _106  and  _108
REMARK   48  A    between atoms: _108  and  _109
REMARK   49  A    between atoms: _108  and  _111
REMARK   50  A    between atoms: _111  and  _112
REMARK   51  A    between atoms: _114  and  _116
REMARK   52  A    between atoms: _116  and  _117
REMARK   53  A    between atoms: _116  and  _119
REMARK   54  A    between atoms: _119  and  _120
REMARK   55  A    between atoms: _125  and  _127
REMARK   56  A    between atoms: _127  and  _128
REMARK   57  A    between atoms: _127  and  _130
REMARK   58  A    between atoms: _130  and  _131
REMARK   59  A    between atoms: _137  and  _139
REMARK   60  A    between atoms: _139  and  _140
REMARK   61  A    between atoms: _143  and  _145
REMARK   62  A    between atoms: _145  and  _146
REMARK   63  A    between atoms: _145  and  _148
REMARK   64  A    between atoms: _151  and  _153
REMARK   65  A    between atoms: _153  and  _154
REMARK   66  A    between atoms: _153  and  _156
REMARK   67  A    between atoms: _159  and  _161
REMARK   68  A    between atoms: _161  and  _162
REMARK   69  A    between atoms: _161  and  _164
REMARK   70  A    between atoms: _164  and  _165
REMARK   71  A    between atoms: _170  and  _171
REMARK   72  A    between atoms: _173  and  _175
REMARK   73  A    between atoms: _175  and  _176
REMARK   74  A    between atoms: _175  and  _178
REMARK   75  A    between atoms: _182  and  _183
REMARK   76  A    between atoms: _188  and  _190
REMARK   77  A    between atoms: _190  and  _191
REMARK   78  A    between atoms: _190  and  _193
REMARK   79  A    between atoms: _193  and  _194
REMARK   80  A    between atoms: _199  and  _200
REMARK   81  A    between atoms: _202  and  _204
REMARK   82  A    between atoms: _204  and  _205
REMARK   83  A    between atoms: _204  and  _207
REMARK   84  A    between atoms: _207  and  _208
REMARK   85  A    between atoms: _211  and  _213
REMARK   86  A    between atoms: _213  and  _214
REMARK   87  A    between atoms: _213  and  _216
REMARK   88  A    between atoms: _216  and  _217
REMARK   89  A    between atoms: _217  and  _218
REMARK   90  A    between atoms: _223  and  _225
REMARK   91  A    between atoms: _225  and  _226
REMARK   92  A    between atoms: _228  and  _230
REMARK   93  A    between atoms: _230  and  _231
REMARK   94  A    between atoms: _230  and  _233
REMARK   95  A    between atoms: _233  and  _234
REMARK   96  A    between atoms: _234  and  _235
REMARK   97  A    between atoms: _235  and  _236
REMARK   98  A    between atoms: _236  and  _237
REMARK   99  A    between atoms: _241  and  _243
REMARK  100  A    between atoms: _243  and  _244
REMARK  101  A    between atoms: _243  and  _246
REMARK  102  A    between atoms: _246  and  _247
REMARK  103  A    between atoms: _257  and  _259
REMARK  104  A    between atoms: _259  and  _260
REMARK  105  A    between atoms: _263  and  _265
REMARK  106  A    between atoms: _265  and  _266
REMARK  107  A    between atoms: _265  and  _268
REMARK  108  A    between atoms: _268  and  _269
REMARK  109  A    between atoms: _272  and  _274
REMARK  110  A    between atoms: _274  and  _275
REMARK  111  A    between atoms: _274  and  _277
REMARK  112  A    between atoms: _277  and  _278
REMARK  113  A    between atoms: _281  and  _283
REMARK  114  A    between atoms: _283  and  _284
REMARK  115  A    between atoms: _283  and  _286
REMARK  116  A    between atoms: _286  and  _287
REMARK  117  A    between atoms: _287  and  _288
REMARK  118  A    between atoms: _288  and  _289
REMARK  119  A    between atoms: _289  and  _290
REMARK  120  A    between atoms: _294  and  _296
REMARK  121  A    between atoms: _296  and  _297
REMARK  122  A    between atoms: _296  and  _299
REMARK  123  A    between atoms: _299  and  _300
REMARK  124  A    between atoms: _306  and  _308
REMARK  125  A    between atoms: _308  and  _309
REMARK  126  A    between atoms: _308  and  _311
REMARK  127  A    between atoms: _311  and  _312
REMARK  128  A    between atoms: _318  and  _320
REMARK  129  A    between atoms: _320  and  _321
REMARK  130  A    between atoms: _320  and  _323
REMARK  131  A    between atoms: _323  and  _324
REMARK  132  A    between atoms: _327  and  _329
REMARK  133  A    between atoms: _329  and  _330
REMARK  134  A    between atoms: _329  and  _332
REMARK  135  A    between atoms: _332  and  _333
REMARK  136  A    between atoms: _335  and  _337
REMARK  137  A    between atoms: _337  and  _338
REMARK  138  A    between atoms: _337  and  _340
REMARK  139  A    between atoms: _340  and  _341
REMARK  140  A    between atoms: _351  and  _353
REMARK  141  A    between atoms: _353  and  _354
REMARK  142  A    between atoms: _356  and  _358
REMARK  143  A    between atoms: _358  and  _359
REMARK  144  A    between atoms: _358  and  _361
REMARK  145  A    between atoms: _361  and  _362
REMARK  146  A    between atoms: _365  and  _367
REMARK  147  A    between atoms: _367  and  _368
REMARK  148  A    between atoms: _367  and  _370
REMARK  149  A    between atoms: _370  and  _371
REMARK  150  A    between atoms: _374  and  _376
REMARK  151  A    between atoms: _376  and  _377
REMARK  152  A    between atoms: _379  and  _381
REMARK  153  A    between atoms: _381  and  _382
REMARK  154  A    between atoms: _381  and  _384
REMARK  155  A    between atoms: _384  and  _385
REMARK  156  A    between atoms: _388  and  _390
REMARK  157  A    between atoms: _390  and  _391
REMARK  158  A    between atoms: _390  and  _393
REMARK  159  A    between atoms: _393  and  _394
REMARK  160  A    between atoms: _397  and  _399
REMARK  161  A    between atoms: _399  and  _400
REMARK  162  A    between atoms: _403  and  _405
REMARK  163  A    between atoms: _405  and  _406
REMARK  164  A    between atoms: _405  and  _408
REMARK  165  A    between atoms: _408  and  _409
REMARK  166  A    between atoms: _409  and  _410
REMARK  167  A    between atoms: _410  and  _411
REMARK  168  A    between atoms: _421  and  _422
REMARK  169  A    between atoms: _427  and  _429
REMARK  170  A    between atoms: _429  and  _430
REMARK  171  A    between atoms: _429  and  _432
REMARK  172  A    between atoms: _432  and  _433
REMARK  173  A    between atoms: _436  and  _438
REMARK  174  A    between atoms: _438  and  _439
REMARK  175  A    between atoms: _438  and  _441
REMARK  176  A    between atoms: _441  and  _442
REMARK  177  A    between atoms: _447  and  _448
REMARK  178  A    between atoms: _450  and  _452
REMARK  179  A    between atoms: _452  and  _453
REMARK  180  A    between atoms: _452  and  _455
REMARK  181  A    between atoms: _455  and  _456
REMARK  182  A    between atoms: _459  and  _461
REMARK  183  A    between atoms: _461  and  _462
REMARK  184  A    between atoms: _461  and  _464
REMARK  185  A    between atoms: _467  and  _469
REMARK  186  A    between atoms: _469  and  _470
REMARK  187  A    between atoms: _469  and  _472
REMARK  188  A    between atoms: _472  and  _473
REMARK  189  A    between atoms: _476  and  _478
REMARK  190  A    between atoms: _478  and  _479
REMARK  191  A    between atoms: _478  and  _481
REMARK  192  A    between atoms: _481  and  _482
REMARK  193  A    between atoms: _484  and  _486
REMARK  194  A    between atoms: _486  and  _487
REMARK  195  A    between atoms: _489  and  _491
REMARK  196  A    between atoms: _491  and  _492
REMARK  197  A    between atoms: _491  and  _494
REMARK  198  A    between atoms: _494  and  _495
REMARK  199  A    between atoms: _498  and  _500
REMARK  200  A    between atoms: _500  and  _501
REMARK  201  A    between atoms: _500  and  _503
REMARK  202  A    between atoms: _503  and  _504
REMARK  203  A    between atoms: _507  and  _509
REMARK  204  A    between atoms: _509  and  _510
REMARK  205  A    between atoms: _509  and  _512
REMARK  206  A    between atoms: _512  and  _513
REMARK  207  A    between atoms: _518  and  _520
REMARK  208  A    between atoms: _520  and  _521
REMARK  209  A    between atoms: _520  and  _523
REMARK  210  A    between atoms: _523  and  _524
REMARK  211  A    between atoms: _524  and  _525
REMARK  212  A    between atoms: _525  and  _526
REMARK  213  A    between atoms: _535  and  _537
REMARK  214  A    between atoms: _537  and  _538
REMARK  215  A    between atoms: _537  and  _540
REMARK  216  A    between atoms: _543  and  _545
REMARK  217  A    between atoms: _545  and  _546
REMARK  218  A    between atoms: _548  and  _550
REMARK  219  A    between atoms: _550  and  _551
REMARK  220  A    between atoms: _554  and  _556
REMARK  221  A    between atoms: _556  and  _557
REMARK  222  A    between atoms: _556  and  _559
REMARK                            x       y       z     vdW  Elec       q    Type
REMARK                         _______ _______ _______ _____ _____    ______ ____
ROOT
ATOM      1  O   HOH     1       9.190  10.906  18.812  0.00  0.00    +0.000 OA
ENDROOT
TORSDOF 0
