REMARK  Name = ../refined-set-2016/3a2o/3a2o_pocket.pdb
REMARK  227 active torsions:
REMARK  status: ('A' for Active; 'I' for Inactive)
REMARK    1  A    between atoms: _1  and  _3
REMARK    2  A    between atoms: _3  and  _4
REMARK    3  A    between atoms: _3  and  _6
REMARK    4  A    between atoms: _6  and  _7
REMARK    5  A    between atoms: _7  and  _8
REMARK    6  A    between atoms: _8  and  _9
REMARK    7  A    between atoms: _18  and  _20
REMARK    8  A    between atoms: _20  and  _21
REMARK    9  A    between atoms: _20  and  _23
REMARK   10  A    between atoms: _23  and  _24
REMARK   11  A    between atoms: _27  and  _29
REMARK   12  A    between atoms: _29  and  _30
REMARK   13  A    between atoms: _29  and  _32
REMARK   14  A    between atoms: _32  and  _33
REMARK   15  A    between atoms: _36  and  _38
REMARK   16  A    between atoms: _38  and  _39
REMARK   17  A    between atoms: _38  and  _41
REMARK   18  A    between atoms: _41  and  _42
REMARK   19  A    between atoms: _45  and  _47
REMARK   20  A    between atoms: _47  and  _48
REMARK   21  A    between atoms: _47  and  _50
REMARK   22  A    between atoms: _50  and  _51
REMARK   23  A    between atoms: _54  and  _56
REMARK   24  A    between atoms: _56  and  _57
REMARK   25  A    between atoms: _59  and  _61
REMARK   26  A    between atoms: _61  and  _62
REMARK   27  A    between atoms: _65  and  _67
REMARK   28  A    between atoms: _67  and  _68
REMARK   29  A    between atoms: _67  and  _70
REMARK   30  A    between atoms: _70  and  _71
REMARK   31  A    between atoms: _74  and  _76
REMARK   32  A    between atoms: _76  and  _77
REMARK   33  A    between atoms: _76  and  _79
REMARK   34  A    between atoms: _79  and  _80
REMARK   35  A    between atoms: _83  and  _85
REMARK   36  A    between atoms: _85  and  _86
REMARK   37  A    between atoms: _85  and  _88
REMARK   38  A    between atoms: _88  and  _89
REMARK   39  A    between atoms: _92  and  _94
REMARK   40  A    between atoms: _94  and  _95
REMARK   41  A    between atoms: _94  and  _97
REMARK   42  A    between atoms: _100  and  _102
REMARK   43  A    between atoms: _102  and  _103
REMARK   44  A    between atoms: _102  and  _105
REMARK   45  A    between atoms: _106  and  _107
REMARK   46  A    between atoms: _107  and  _108
REMARK   47  A    between atoms: _108  and  _109
REMARK   48  A    between atoms: _113  and  _115
REMARK   49  A    between atoms: _115  and  _116
REMARK   50  A    between atoms: _115  and  _118
REMARK   51  A    between atoms: _118  and  _119
REMARK   52  A    between atoms: _119  and  _120
REMARK   53  A    between atoms: _122  and  _124
REMARK   54  A    between atoms: _124  and  _125
REMARK   55  A    between atoms: _124  and  _127
REMARK   56  A    between atoms: _127  and  _128
REMARK   57  A    between atoms: _131  and  _133
REMARK   58  A    between atoms: _133  and  _134
REMARK   59  A    between atoms: _136  and  _138
REMARK   60  A    between atoms: _138  and  _139
REMARK   61  A    between atoms: _141  and  _143
REMARK   62  A    between atoms: _143  and  _144
REMARK   63  A    between atoms: _143  and  _146
REMARK   64  A    between atoms: _146  and  _147
REMARK   65  A    between atoms: _150  and  _152
REMARK   66  A    between atoms: _152  and  _153
REMARK   67  A    between atoms: _155  and  _157
REMARK   68  A    between atoms: _157  and  _158
REMARK   69  A    between atoms: _160  and  _162
REMARK   70  A    between atoms: _162  and  _163
REMARK   71  A    between atoms: _162  and  _165
REMARK   72  A    between atoms: _165  and  _166
REMARK   73  A    between atoms: _169  and  _171
REMARK   74  A    between atoms: _171  and  _172
REMARK   75  A    between atoms: _171  and  _174
REMARK   76  A    between atoms: _177  and  _179
REMARK   77  A    between atoms: _179  and  _180
REMARK   78  A    between atoms: _179  and  _182
REMARK   79  A    between atoms: _182  and  _183
REMARK   80  A    between atoms: _187  and  _188
REMARK   81  A    between atoms: _193  and  _195
REMARK   82  A    between atoms: _195  and  _196
REMARK   83  A    between atoms: _195  and  _198
REMARK   84  A    between atoms: _198  and  _199
REMARK   85  A    between atoms: _203  and  _204
REMARK   86  A    between atoms: _209  and  _211
REMARK   87  A    between atoms: _211  and  _212
REMARK   88  A    between atoms: _211  and  _214
REMARK   89  A    between atoms: _217  and  _219
REMARK   90  A    between atoms: _219  and  _220
REMARK   91  A    between atoms: _219  and  _222
REMARK   92  A    between atoms: _222  and  _223
REMARK   93  A    between atoms: _228  and  _230
REMARK   94  A    between atoms: _230  and  _231
REMARK   95  A    between atoms: _230  and  _233
REMARK   96  A    between atoms: _233  and  _234
REMARK   97  A    between atoms: _237  and  _239
REMARK   98  A    between atoms: _239  and  _240
REMARK   99  A    between atoms: _239  and  _242
REMARK  100  A    between atoms: _242  and  _243
REMARK  101  A    between atoms: _246  and  _248
REMARK  102  A    between atoms: _248  and  _249
REMARK  103  A    between atoms: _251  and  _253
REMARK  104  A    between atoms: _253  and  _254
REMARK  105  A    between atoms: _253  and  _256
REMARK  106  A    between atoms: _256  and  _257
REMARK  107  A    between atoms: _257  and  _258
REMARK  108  A    between atoms: _258  and  _259
REMARK  109  A    between atoms: _268  and  _270
REMARK  110  A    between atoms: _270  and  _271
REMARK  111  A    between atoms: _270  and  _273
REMARK  112  A    between atoms: _273  and  _274
REMARK  113  A    between atoms: _279  and  _281
REMARK  114  A    between atoms: _281  and  _282
REMARK  115  A    between atoms: _281  and  _284
REMARK  116  A    between atoms: _284  and  _285
REMARK  117  A    between atoms: _285  and  _286
REMARK  118  A    between atoms: _286  and  _287
REMARK  119  A    between atoms: _296  and  _298
REMARK  120  A    between atoms: _298  and  _299
REMARK  121  A    between atoms: _298  and  _301
REMARK  122  A    between atoms: _301  and  _302
REMARK  123  A    between atoms: _305  and  _307
REMARK  124  A    between atoms: _307  and  _308
REMARK  125  A    between atoms: _307  and  _310
REMARK  126  A    between atoms: _310  and  _311
REMARK  127  A    between atoms: _314  and  _316
REMARK  128  A    between atoms: _316  and  _317
REMARK  129  A    between atoms: _316  and  _319
REMARK  130  A    between atoms: _319  and  _320
REMARK  131  A    between atoms: _323  and  _325
REMARK  132  A    between atoms: _325  and  _326
REMARK  133  A    between atoms: _325  and  _328
REMARK  134  A    between atoms: _328  and  _329
REMARK  135  A    between atoms: _332  and  _334
REMARK  136  A    between atoms: _334  and  _335
REMARK  137  A    between atoms: _337  and  _339
REMARK  138  A    between atoms: _339  and  _340
REMARK  139  A    between atoms: _343  and  _345
REMARK  140  A    between atoms: _345  and  _346
REMARK  141  A    between atoms: _345  and  _348
REMARK  142  A    between atoms: _348  and  _349
REMARK  143  A    between atoms: _352  and  _354
REMARK  144  A    between atoms: _354  and  _355
REMARK  145  A    between atoms: _354  and  _357
REMARK  146  A    between atoms: _357  and  _358
REMARK  147  A    between atoms: _361  and  _363
REMARK  148  A    between atoms: _363  and  _364
REMARK  149  A    between atoms: _363  and  _366
REMARK  150  A    between atoms: _366  and  _367
REMARK  151  A    between atoms: _370  and  _372
REMARK  152  A    between atoms: _372  and  _373
REMARK  153  A    between atoms: _372  and  _375
REMARK  154  A    between atoms: _378  and  _380
REMARK  155  A    between atoms: _380  and  _381
REMARK  156  A    between atoms: _380  and  _383
REMARK  157  A    between atoms: _384  and  _385
REMARK  158  A    between atoms: _385  and  _386
REMARK  159  A    between atoms: _386  and  _387
REMARK  160  A    between atoms: _391  and  _393
REMARK  161  A    between atoms: _393  and  _394
REMARK  162  A    between atoms: _393  and  _396
REMARK  163  A    between atoms: _396  and  _397
REMARK  164  A    between atoms: _397  and  _398
REMARK  165  A    between atoms: _400  and  _402
REMARK  166  A    between atoms: _402  and  _403
REMARK  167  A    between atoms: _402  and  _405
REMARK  168  A    between atoms: _405  and  _406
REMARK  169  A    between atoms: _409  and  _411
REMARK  170  A    between atoms: _411  and  _412
REMARK  171  A    between atoms: _414  and  _416
REMARK  172  A    between atoms: _416  and  _417
REMARK  173  A    between atoms: _419  and  _421
REMARK  174  A    between atoms: _421  and  _422
REMARK  175  A    between atoms: _421  and  _424
REMARK  176  A    between atoms: _424  and  _425
REMARK  177  A    between atoms: _428  and  _430
REMARK  178  A    between atoms: _430  and  _431
REMARK  179  A    between atoms: _433  and  _435
REMARK  180  A    between atoms: _435  and  _436
REMARK  181  A    between atoms: _438  and  _440
REMARK  182  A    between atoms: _440  and  _441
REMARK  183  A    between atoms: _440  and  _443
REMARK  184  A    between atoms: _443  and  _444
REMARK  185  A    between atoms: _450  and  _452
REMARK  186  A    between atoms: _452  and  _453
REMARK  187  A    between atoms: _452  and  _455
REMARK  188  A    between atoms: _455  and  _456
REMARK  189  A    between atoms: _459  and  _461
REMARK  190  A    between atoms: _461  and  _462
REMARK  191  A    between atoms: _461  and  _464
REMARK  192  A    between atoms: _467  and  _469
REMARK  193  A    between atoms: _469  and  _470
REMARK  194  A    between atoms: _469  and  _472
REMARK  195  A    between atoms: _472  and  _473
REMARK  196  A    between atoms: _476  and  _478
REMARK  197  A    between atoms: _478  and  _479
REMARK  198  A    between atoms: _478  and  _481
REMARK  199  A    between atoms: _481  and  _482
REMARK  200  A    between atoms: _486  and  _487
REMARK  201  A    between atoms: _492  and  _494
REMARK  202  A    between atoms: _494  and  _495
REMARK  203  A    between atoms: _494  and  _497
REMARK  204  A    between atoms: _500  and  _502
REMARK  205  A    between atoms: _502  and  _503
REMARK  206  A    between atoms: _502  and  _505
REMARK  207  A    between atoms: _505  and  _506
REMARK  208  A    between atoms: _511  and  _513
REMARK  209  A    between atoms: _513  and  _514
REMARK  210  A    between atoms: _513  and  _516
REMARK  211  A    between atoms: _516  and  _517
REMARK  212  A    between atoms: _520  and  _522
REMARK  213  A    between atoms: _522  and  _523
REMARK  214  A    between atoms: _522  and  _525
REMARK  215  A    between atoms: _525  and  _526
REMARK  216  A    between atoms: _529  and  _531
REMARK  217  A    between atoms: _531  and  _532
REMARK  218  A    between atoms: _534  and  _536
REMARK  219  A    between atoms: _536  and  _537
REMARK  220  A    between atoms: _536  and  _539
REMARK  221  A    between atoms: _539  and  _540
REMARK  222  A    between atoms: _540  and  _541
REMARK  223  A    between atoms: _541  and  _542
REMARK  224  A    between atoms: _551  and  _553
REMARK  225  A    between atoms: _553  and  _554
REMARK  226  A    between atoms: _553  and  _556
REMARK  227  A    between atoms: _556  and  _557
REMARK                            x       y       z     vdW  Elec       q    Type
REMARK                         _______ _______ _______ _____ _____    ______ ____
ROOT
ATOM      1  NE  ARG A   1       6.278  20.102  15.480  0.00  0.00    -0.265 N 
ATOM      2  HE  ARG A   1       6.425  20.043  16.508  0.00  0.00    +0.259 HD
ATOM      3  CZ  ARG A   1       6.551  19.018  14.753  0.00  0.00    +0.342 C 
ATOM      4  NH2 ARG A   1       7.028  17.913  15.332  0.00  0.00    -0.292 N 
ATOM      5 HH21 ARG A   1       7.190  17.893  16.359  0.00  0.00    +0.255 HD
ATOM      6 HH22 ARG A   1       7.238  17.073  14.756  0.00  0.00    +0.255 HD
ATOM      7  NH1 ARG A   1       6.381  19.023  13.449  0.00  0.00    -0.292 N 
ATOM      8 HH11 ARG A   1       6.030  19.879  12.974  0.00  0.00    +0.255 HD
ATOM      9 HH12 ARG A   1       6.598  18.171  12.893  0.00  0.00    +0.255 HD
ENDROOT
BRANCH   1  10
ATOM     10  CD  ARG A   1       5.785  21.373  14.934  0.00  0.00    +0.174 C 
BRANCH  10  11
ATOM     11  CG  ARG A   1       5.326  22.224  16.089  0.00  0.00    +0.045 C 
BRANCH  11  12
ATOM     12  CB  ARG A   1       4.760  23.589  15.677  0.00  0.00    +0.029 C 
BRANCH  12  13
ATOM     13  CA  ARG A   1       4.161  24.363  16.865  0.00  0.00    +0.133 C 
BRANCH  13  14
ATOM     14  N   ARG A   1       2.967  23.690  17.369  0.00  0.00    -0.239 NA
ATOM     15  H   ARG A   1       2.653  22.796  16.941  0.00  0.00    +0.142 HD
ENDBRANCH  13  14
BRANCH  13  16
ATOM     16  C   ARG A   1       3.823  25.768  16.390  0.00  0.00    +0.224 C 
ATOM     17  O   ARG A   1       2.839  25.969  15.652  0.00  0.00    -0.287 OA
ENDBRANCH  13  16
ENDBRANCH  12  13
ENDBRANCH  11  12
ENDBRANCH  10  11
ENDBRANCH   1  10
TORSDOF 6
REMARK  Name = ../refined-set-2016/3a2o/3a2o_pocket.pdb
REMARK  227 active torsions:
REMARK  status: ('A' for Active; 'I' for Inactive)
REMARK    1  A    between atoms: _1  and  _3
REMARK    2  A    between atoms: _3  and  _4
REMARK    3  A    between atoms: _3  and  _6
REMARK    4  A    between atoms: _6  and  _7
REMARK    5  A    between atoms: _7  and  _8
REMARK    6  A    between atoms: _8  and  _9
REMARK    7  A    between atoms: _18  and  _20
REMARK    8  A    between atoms: _20  and  _21
REMARK    9  A    between atoms: _20  and  _23
REMARK   10  A    between atoms: _23  and  _24
REMARK   11  A    between atoms: _27  and  _29
REMARK   12  A    between atoms: _29  and  _30
REMARK   13  A    between atoms: _29  and  _32
REMARK   14  A    between atoms: _32  and  _33
REMARK   15  A    between atoms: _36  and  _38
REMARK   16  A    between atoms: _38  and  _39
REMARK   17  A    between atoms: _38  and  _41
REMARK   18  A    between atoms: _41  and  _42
REMARK   19  A    between atoms: _45  and  _47
REMARK   20  A    between atoms: _47  and  _48
REMARK   21  A    between atoms: _47  and  _50
REMARK   22  A    between atoms: _50  and  _51
REMARK   23  A    between atoms: _54  and  _56
REMARK   24  A    between atoms: _56  and  _57
REMARK   25  A    between atoms: _59  and  _61
REMARK   26  A    between atoms: _61  and  _62
REMARK   27  A    between atoms: _65  and  _67
REMARK   28  A    between atoms: _67  and  _68
REMARK   29  A    between atoms: _67  and  _70
REMARK   30  A    between atoms: _70  and  _71
REMARK   31  A    between atoms: _74  and  _76
REMARK   32  A    between atoms: _76  and  _77
REMARK   33  A    between atoms: _76  and  _79
REMARK   34  A    between atoms: _79  and  _80
REMARK   35  A    between atoms: _83  and  _85
REMARK   36  A    between atoms: _85  and  _86
REMARK   37  A    between atoms: _85  and  _88
REMARK   38  A    between atoms: _88  and  _89
REMARK   39  A    between atoms: _92  and  _94
REMARK   40  A    between atoms: _94  and  _95
REMARK   41  A    between atoms: _94  and  _97
REMARK   42  A    between atoms: _100  and  _102
REMARK   43  A    between atoms: _102  and  _103
REMARK   44  A    between atoms: _102  and  _105
REMARK   45  A    between atoms: _106  and  _107
REMARK   46  A    between atoms: _107  and  _108
REMARK   47  A    between atoms: _108  and  _109
REMARK   48  A    between atoms: _113  and  _115
REMARK   49  A    between atoms: _115  and  _116
REMARK   50  A    between atoms: _115  and  _118
REMARK   51  A    between atoms: _118  and  _119
REMARK   52  A    between atoms: _119  and  _120
REMARK   53  A    between atoms: _122  and  _124
REMARK   54  A    between atoms: _124  and  _125
REMARK   55  A    between atoms: _124  and  _127
REMARK   56  A    between atoms: _127  and  _128
REMARK   57  A    between atoms: _131  and  _133
REMARK   58  A    between atoms: _133  and  _134
REMARK   59  A    between atoms: _136  and  _138
REMARK   60  A    between atoms: _138  and  _139
REMARK   61  A    between atoms: _141  and  _143
REMARK   62  A    between atoms: _143  and  _144
REMARK   63  A    between atoms: _143  and  _146
REMARK   64  A    between atoms: _146  and  _147
REMARK   65  A    between atoms: _150  and  _152
REMARK   66  A    between atoms: _152  and  _153
REMARK   67  A    between atoms: _155  and  _157
REMARK   68  A    between atoms: _157  and  _158
REMARK   69  A    between atoms: _160  and  _162
REMARK   70  A    between atoms: _162  and  _163
REMARK   71  A    between atoms: _162  and  _165
REMARK   72  A    between atoms: _165  and  _166
REMARK   73  A    between atoms: _169  and  _171
REMARK   74  A    between atoms: _171  and  _172
REMARK   75  A    between atoms: _171  and  _174
REMARK   76  A    between atoms: _177  and  _179
REMARK   77  A    between atoms: _179  and  _180
REMARK   78  A    between atoms: _179  and  _182
REMARK   79  A    between atoms: _182  and  _183
REMARK   80  A    between atoms: _187  and  _188
REMARK   81  A    between atoms: _193  and  _195
REMARK   82  A    between atoms: _195  and  _196
REMARK   83  A    between atoms: _195  and  _198
REMARK   84  A    between atoms: _198  and  _199
REMARK   85  A    between atoms: _203  and  _204
REMARK   86  A    between atoms: _209  and  _211
REMARK   87  A    between atoms: _211  and  _212
REMARK   88  A    between atoms: _211  and  _214
REMARK   89  A    between atoms: _217  and  _219
REMARK   90  A    between atoms: _219  and  _220
REMARK   91  A    between atoms: _219  and  _222
REMARK   92  A    between atoms: _222  and  _223
REMARK   93  A    between atoms: _228  and  _230
REMARK   94  A    between atoms: _230  and  _231
REMARK   95  A    between atoms: _230  and  _233
REMARK   96  A    between atoms: _233  and  _234
REMARK   97  A    between atoms: _237  and  _239
REMARK   98  A    between atoms: _239  and  _240
REMARK   99  A    between atoms: _239  and  _242
REMARK  100  A    between atoms: _242  and  _243
REMARK  101  A    between atoms: _246  and  _248
REMARK  102  A    between atoms: _248  and  _249
REMARK  103  A    between atoms: _251  and  _253
REMARK  104  A    between atoms: _253  and  _254
REMARK  105  A    between atoms: _253  and  _256
REMARK  106  A    between atoms: _256  and  _257
REMARK  107  A    between atoms: _257  and  _258
REMARK  108  A    between atoms: _258  and  _259
REMARK  109  A    between atoms: _268  and  _270
REMARK  110  A    between atoms: _270  and  _271
REMARK  111  A    between atoms: _270  and  _273
REMARK  112  A    between atoms: _273  and  _274
REMARK  113  A    between atoms: _279  and  _281
REMARK  114  A    between atoms: _281  and  _282
REMARK  115  A    between atoms: _281  and  _284
REMARK  116  A    between atoms: _284  and  _285
REMARK  117  A    between atoms: _285  and  _286
REMARK  118  A    between atoms: _286  and  _287
REMARK  119  A    between atoms: _296  and  _298
REMARK  120  A    between atoms: _298  and  _299
REMARK  121  A    between atoms: _298  and  _301
REMARK  122  A    between atoms: _301  and  _302
REMARK  123  A    between atoms: _305  and  _307
REMARK  124  A    between atoms: _307  and  _308
REMARK  125  A    between atoms: _307  and  _310
REMARK  126  A    between atoms: _310  and  _311
REMARK  127  A    between atoms: _314  and  _316
REMARK  128  A    between atoms: _316  and  _317
REMARK  129  A    between atoms: _316  and  _319
REMARK  130  A    between atoms: _319  and  _320
REMARK  131  A    between atoms: _323  and  _325
REMARK  132  A    between atoms: _325  and  _326
REMARK  133  A    between atoms: _325  and  _328
REMARK  134  A    between atoms: _328  and  _329
REMARK  135  A    between atoms: _332  and  _334
REMARK  136  A    between atoms: _334  and  _335
REMARK  137  A    between atoms: _337  and  _339
REMARK  138  A    between atoms: _339  and  _340
REMARK  139  A    between atoms: _343  and  _345
REMARK  140  A    between atoms: _345  and  _346
REMARK  141  A    between atoms: _345  and  _348
REMARK  142  A    between atoms: _348  and  _349
REMARK  143  A    between atoms: _352  and  _354
REMARK  144  A    between atoms: _354  and  _355
REMARK  145  A    between atoms: _354  and  _357
REMARK  146  A    between atoms: _357  and  _358
REMARK  147  A    between atoms: _361  and  _363
REMARK  148  A    between atoms: _363  and  _364
REMARK  149  A    between atoms: _363  and  _366
REMARK  150  A    between atoms: _366  and  _367
REMARK  151  A    between atoms: _370  and  _372
REMARK  152  A    between atoms: _372  and  _373
REMARK  153  A    between atoms: _372  and  _375
REMARK  154  A    between atoms: _378  and  _380
REMARK  155  A    between atoms: _380  and  _381
REMARK  156  A    between atoms: _380  and  _383
REMARK  157  A    between atoms: _384  and  _385
REMARK  158  A    between atoms: _385  and  _386
REMARK  159  A    between atoms: _386  and  _387
REMARK  160  A    between atoms: _391  and  _393
REMARK  161  A    between atoms: _393  and  _394
REMARK  162  A    between atoms: _393  and  _396
REMARK  163  A    between atoms: _396  and  _397
REMARK  164  A    between atoms: _397  and  _398
REMARK  165  A    between atoms: _400  and  _402
REMARK  166  A    between atoms: _402  and  _403
REMARK  167  A    between atoms: _402  and  _405
REMARK  168  A    between atoms: _405  and  _406
REMARK  169  A    between atoms: _409  and  _411
REMARK  170  A    between atoms: _411  and  _412
REMARK  171  A    between atoms: _414  and  _416
REMARK  172  A    between atoms: _416  and  _417
REMARK  173  A    between atoms: _419  and  _421
REMARK  174  A    between atoms: _421  and  _422
REMARK  175  A    between atoms: _421  and  _424
REMARK  176  A    between atoms: _424  and  _425
REMARK  177  A    between atoms: _428  and  _430
REMARK  178  A    between atoms: _430  and  _431
REMARK  179  A    between atoms: _433  and  _435
REMARK  180  A    between atoms: _435  and  _436
REMARK  181  A    between atoms: _438  and  _440
REMARK  182  A    between atoms: _440  and  _441
REMARK  183  A    between atoms: _440  and  _443
REMARK  184  A    between atoms: _443  and  _444
REMARK  185  A    between atoms: _450  and  _452
REMARK  186  A    between atoms: _452  and  _453
REMARK  187  A    between atoms: _452  and  _455
REMARK  188  A    between atoms: _455  and  _456
REMARK  189  A    between atoms: _459  and  _461
REMARK  190  A    between atoms: _461  and  _462
REMARK  191  A    between atoms: _461  and  _464
REMARK  192  A    between atoms: _467  and  _469
REMARK  193  A    between atoms: _469  and  _470
REMARK  194  A    between atoms: _469  and  _472
REMARK  195  A    between atoms: _472  and  _473
REMARK  196  A    between atoms: _476  and  _478
REMARK  197  A    between atoms: _478  and  _479
REMARK  198  A    between atoms: _478  and  _481
REMARK  199  A    between atoms: _481  and  _482
REMARK  200  A    between atoms: _486  and  _487
REMARK  201  A    between atoms: _492  and  _494
REMARK  202  A    between atoms: _494  and  _495
REMARK  203  A    between atoms: _494  and  _497
REMARK  204  A    between atoms: _500  and  _502
REMARK  205  A    between atoms: _502  and  _503
REMARK  206  A    between atoms: _502  and  _505
REMARK  207  A    between atoms: _505  and  _506
REMARK  208  A    between atoms: _511  and  _513
REMARK  209  A    between atoms: _513  and  _514
REMARK  210  A    between atoms: _513  and  _516
REMARK  211  A    between atoms: _516  and  _517
REMARK  212  A    between atoms: _520  and  _522
REMARK  213  A    between atoms: _522  and  _523
REMARK  214  A    between atoms: _522  and  _525
REMARK  215  A    between atoms: _525  and  _526
REMARK  216  A    between atoms: _529  and  _531
REMARK  217  A    between atoms: _531  and  _532
REMARK  218  A    between atoms: _534  and  _536
REMARK  219  A    between atoms: _536  and  _537
REMARK  220  A    between atoms: _536  and  _539
REMARK  221  A    between atoms: _539  and  _540
REMARK  222  A    between atoms: _540  and  _541
REMARK  223  A    between atoms: _541  and  _542
REMARK  224  A    between atoms: _551  and  _553
REMARK  225  A    between atoms: _553  and  _554
REMARK  226  A    between atoms: _553  and  _556
REMARK  227  A    between atoms: _556  and  _557
REMARK                            x       y       z     vdW  Elec       q    Type
REMARK                         _______ _______ _______ _____ _____    ______ ____
ROOT
ATOM      1  C   GLY A   5      17.194  27.954  19.786  0.00  0.00    +0.243 C 
ATOM      2  O   GLY A   5      18.298  27.430  19.992  0.00  0.00    -0.273 OA
ATOM      3  N   ALA A   6      16.917  28.612  18.671  0.00  0.00    -0.297 N 
ATOM      4  H   ALA A   6      15.988  29.071  18.586  0.00  0.00    +0.150 HD
ENDROOT
BRANCH   3   5
ATOM      5  CA  ALA A   6      17.846  28.725  17.560  0.00  0.00    +0.149 C 
ATOM      6  CB  ALA A   6      17.137  28.539  16.252  0.00  0.00    +0.031 C 
BRANCH   5   7
ATOM      7  C   ALA A   6      18.512  30.098  17.594  0.00  0.00    +0.241 C 
ATOM      8  O   ALA A   6      17.840  31.119  17.594  0.00  0.00    -0.273 OA
ATOM      9  N   ASP A   7      19.843  30.122  17.556  0.00  0.00    -0.297 N 
ATOM     10  H   ASP A   7      20.381  29.232  17.573  0.00  0.00    +0.150 HD
BRANCH   9  11
ATOM     11  CA  ASP A   7      20.545  31.398  17.491  0.00  0.00    +0.160 C 
BRANCH  11  12
ATOM     12  C   ASP A   7      20.295  32.088  16.139  0.00  0.00    +0.241 C 
ATOM     13  O   ASP A   7      20.267  33.306  16.053  0.00  0.00    -0.273 OA
ATOM     14  N   ASP A   8      20.226  31.244  15.100  0.00  0.00    -0.297 N 
ATOM     15  H   ASP A   8      20.147  30.229  15.310  0.00  0.00    +0.150 HD
BRANCH  14  16
ATOM     16  CA  ASP A   8      20.253  31.637  13.715  0.00  0.00    +0.160 C 
BRANCH  16  17
ATOM     17  C   ASP A   8      18.959  31.184  13.018  0.00  0.00    +0.241 C 
ATOM     18  O   ASP A   8      18.259  30.317  13.506  0.00  0.00    -0.273 OA
ATOM     19  N   THR A   9      18.712  31.773  11.868  0.00  0.00    -0.295 N 
ATOM     20  H   THR A   9      19.370  32.516  11.557  0.00  0.00    +0.150 HD
BRANCH  19  21
ATOM     21  CA  THR A   9      17.591  31.465  11.000  0.00  0.00    +0.176 C 
BRANCH  21  22
ATOM     22  C   THR A   9      18.096  30.535   9.879  0.00  0.00    +0.243 C 
ATOM     23  N   VAL A  10      17.331  29.464   9.667  0.00  0.00    -0.298 N 
ATOM     24  H   VAL A  10      16.410  29.393  10.146  0.00  0.00    +0.150 HD
ATOM     25  O   THR A   9      19.105  30.851   9.244  0.00  0.00    -0.273 OA
BRANCH  23  26
ATOM     26  CA  VAL A  10      17.759  28.388   8.776  0.00  0.00    +0.137 C 
BRANCH  26  27
ATOM     27  CB  VAL A  10      18.221  27.151   9.549  0.00  0.00    +0.026 C 
ATOM     28  CG2 VAL A  10      19.064  27.482  10.762  0.00  0.00    +0.002 C 
ATOM     29  CG1 VAL A  10      19.032  26.241   8.619  0.00  0.00    +0.002 C 
ENDBRANCH  26  27
BRANCH  26  30
ATOM     30  C   VAL A  10      16.580  28.026   7.872  0.00  0.00    +0.227 C 
ATOM     31  O   VAL A  10      15.479  27.682   8.355  0.00  0.00    -0.286 OA
ENDBRANCH  26  30
ENDBRANCH  23  26
ENDBRANCH  21  22
BRANCH  21  32
ATOM     32  CB  THR A   9      17.018  32.770  10.444  0.00  0.00    +0.137 C 
ATOM     33  CG2 THR A   9      15.982  32.553   9.370  0.00  0.00    +0.034 C 
BRANCH  32  34
ATOM     34  OG1 THR A   9      16.426  33.483  11.524  0.00  0.00    -0.382 OA
ATOM     35  HG1 THR A   9      17.115  33.675  12.208  0.00  0.00    +0.210 HD
ENDBRANCH  32  34
ENDBRANCH  21  32
ENDBRANCH  19  21
ENDBRANCH  16  17
BRANCH  16  36
ATOM     36  CB  ASP A   8      21.471  30.998  13.012  0.00  0.00    +0.143 C 
BRANCH  36  37
ATOM     37  CG  ASP A   8      22.790  31.138  13.740  0.00  0.00    +0.367 C 
ATOM     38  OD2 ASP A   8      23.073  32.330  14.009  0.00  0.00    -0.246 OA
ATOM     39  OD1 ASP A   8      23.511  30.157  13.966  0.00  0.00    -0.246 OA
ENDBRANCH  36  37
ENDBRANCH  16  36
ENDBRANCH  14  16
ENDBRANCH  11  12
BRANCH  11  40
ATOM     40  CB  ASP A   7      22.050  31.207  17.680  0.00  0.00    +0.143 C 
BRANCH  40  41
ATOM     41  CG  ASP A   7      22.485  30.704  19.027  0.00  0.00    +0.367 C 
ATOM     42  OD2 ASP A   7      21.712  30.682  19.988  0.00  0.00    -0.246 OA
ATOM     43  OD1 ASP A   7      23.685  30.325  19.109  0.00  0.00    -0.246 OA
ENDBRANCH  40  41
ENDBRANCH  11  40
ENDBRANCH   9  11
ENDBRANCH   5   7
ENDBRANCH   3   5
BRANCH   1  44
ATOM     44  CA  GLY A   5      16.127  27.839  20.829  0.00  0.00    +0.176 C 
BRANCH  44  47
ATOM     45  C   THR A   4      14.904  29.930  20.897  0.00  0.00    +0.243 C 
ATOM     46  O   THR A   4      15.809  30.537  21.481  0.00  0.00    -0.273 OA
ATOM     47  N   GLY A   5      14.944  28.634  20.606  0.00  0.00    -0.295 N 
ATOM     48  H   GLY A   5      14.098  28.180  20.206  0.00  0.00    +0.150 HD
BRANCH  45  49
ATOM     49  CA  THR A   4      13.621  30.694  20.544  0.00  0.00    +0.176 C 
BRANCH  49  51
ATOM     50  C   ASP A   3      13.181  29.837  18.310  0.00  0.00    +0.241 C 
ATOM     51  N   THR A   4      12.794  30.015  19.581  0.00  0.00    -0.295 N 
ATOM     52  H   THR A   4      11.867  29.651  19.881  0.00  0.00    +0.150 HD
ATOM     53  O   ASP A   3      14.272  30.246  17.910  0.00  0.00    -0.273 OA
BRANCH  50  54
ATOM     54  CA  ASP A   3      12.229  29.070  17.411  0.00  0.00    +0.160 C 
BRANCH  54  57
ATOM     55  C   LEU A   2      10.075  29.915  16.625  0.00  0.00    +0.241 C 
ATOM     56  O   LEU A   2       9.416  29.287  17.465  0.00  0.00    -0.273 OA
ATOM     57  N   ASP A   3      11.399  29.985  16.607  0.00  0.00    -0.297 N 
ATOM     58  H   ASP A   3      11.862  30.702  16.012  0.00  0.00    +0.150 HD
BRANCH  55  59
ATOM     59  CA  LEU A   2       9.342  30.642  15.499  0.00  0.00    +0.149 C 
BRANCH  59  61
ATOM     60  C   LEU A   1       9.519  28.970  13.725  0.00  0.00    +0.238 C 
ATOM     61  N   LEU A   2       8.769  29.639  14.614  0.00  0.00    -0.297 N 
ATOM     62  H   LEU A   2       7.751  29.435  14.672  0.00  0.00    +0.150 HD
ATOM     63  O   LEU A   1      10.719  29.196  13.574  0.00  0.00    -0.274 OA
BRANCH  60  64
ATOM     64  CA  LEU A   1       8.857  27.837  12.960  0.00  0.00    +0.145 C 
BRANCH  64  65
ATOM     65  N   LEU A   1       9.043  28.028  11.515  0.00  0.00    -0.238 NA
ATOM     66  H   LEU A   1       9.929  27.687  11.091  0.00  0.00    +0.142 HD
ENDBRANCH  64  65
BRANCH  64  67
ATOM     67  CB  LEU A   1       9.493  26.491  13.295  0.00  0.00    +0.026 C 
BRANCH  67  68
ATOM     68  CG  LEU A   1       9.447  26.010  14.736  0.00  0.00    +0.002 C 
ATOM     69  CD2 LEU A   1       8.018  25.798  15.162  0.00  0.00    +0.000 C 
ATOM     70  CD1 LEU A   1      10.287  24.764  14.877  0.00  0.00    +0.000 C 
ENDBRANCH  67  68
ENDBRANCH  64  67
ENDBRANCH  60  64
ENDBRANCH  59  61
BRANCH  59  71
ATOM     71  CB  LEU A   2       8.267  31.547  16.050  0.00  0.00    +0.029 C 
BRANCH  71  72
ATOM     72  CG  LEU A   2       7.412  32.289  15.034  0.00  0.00    +0.002 C 
ATOM     73  CD2 LEU A   2       6.375  33.121  15.803  0.00  0.00    +0.000 C 
ATOM     74  CD1 LEU A   2       8.243  33.169  14.141  0.00  0.00    +0.000 C 
ENDBRANCH  71  72
ENDBRANCH  59  71
ENDBRANCH  55  59
ENDBRANCH  54  57
BRANCH  54  75
ATOM     75  CB  ASP A   3      12.998  28.161  16.469  0.00  0.00    +0.143 C 
BRANCH  75  76
ATOM     76  CG  ASP A   3      13.846  27.179  17.293  0.00  0.00    +0.367 C 
ATOM     77  OD2 ASP A   3      13.812  27.163  18.513  0.00  0.00    -0.246 OA
ATOM     78  OD1 ASP A   3      14.565  26.359  16.580  0.00  0.00    -0.246 OA
ENDBRANCH  75  76
ENDBRANCH  54  75
ENDBRANCH  50  54
ENDBRANCH  49  51
BRANCH  49  79
ATOM     79  CB  THR A   4      12.852  31.027  21.824  0.00  0.00    +0.137 C 
ATOM     80  CG2 THR A   4      11.652  31.909  21.550  0.00  0.00    +0.034 C 
BRANCH  79  81
ATOM     81  OG1 THR A   4      12.393  29.815  22.441  0.00  0.00    -0.382 OA
ATOM     82  HG1 THR A   4      13.171  29.244  22.664  0.00  0.00    +0.210 HD
ENDBRANCH  79  81
ENDBRANCH  49  79
ENDBRANCH  45  49
ENDBRANCH  44  47
ENDBRANCH   1  44
TORSDOF 35
REMARK  Name = ../refined-set-2016/3a2o/3a2o_pocket.pdb
REMARK  227 active torsions:
REMARK  status: ('A' for Active; 'I' for Inactive)
REMARK    1  A    between atoms: _1  and  _3
REMARK    2  A    between atoms: _3  and  _4
REMARK    3  A    between atoms: _3  and  _6
REMARK    4  A    between atoms: _6  and  _7
REMARK    5  A    between atoms: _7  and  _8
REMARK    6  A    between atoms: _8  and  _9
REMARK    7  A    between atoms: _18  and  _20
REMARK    8  A    between atoms: _20  and  _21
REMARK    9  A    between atoms: _20  and  _23
REMARK   10  A    between atoms: _23  and  _24
REMARK   11  A    between atoms: _27  and  _29
REMARK   12  A    between atoms: _29  and  _30
REMARK   13  A    between atoms: _29  and  _32
REMARK   14  A    between atoms: _32  and  _33
REMARK   15  A    between atoms: _36  and  _38
REMARK   16  A    between atoms: _38  and  _39
REMARK   17  A    between atoms: _38  and  _41
REMARK   18  A    between atoms: _41  and  _42
REMARK   19  A    between atoms: _45  and  _47
REMARK   20  A    between atoms: _47  and  _48
REMARK   21  A    between atoms: _47  and  _50
REMARK   22  A    between atoms: _50  and  _51
REMARK   23  A    between atoms: _54  and  _56
REMARK   24  A    between atoms: _56  and  _57
REMARK   25  A    between atoms: _59  and  _61
REMARK   26  A    between atoms: _61  and  _62
REMARK   27  A    between atoms: _65  and  _67
REMARK   28  A    between atoms: _67  and  _68
REMARK   29  A    between atoms: _67  and  _70
REMARK   30  A    between atoms: _70  and  _71
REMARK   31  A    between atoms: _74  and  _76
REMARK   32  A    between atoms: _76  and  _77
REMARK   33  A    between atoms: _76  and  _79
REMARK   34  A    between atoms: _79  and  _80
REMARK   35  A    between atoms: _83  and  _85
REMARK   36  A    between atoms: _85  and  _86
REMARK   37  A    between atoms: _85  and  _88
REMARK   38  A    between atoms: _88  and  _89
REMARK   39  A    between atoms: _92  and  _94
REMARK   40  A    between atoms: _94  and  _95
REMARK   41  A    between atoms: _94  and  _97
REMARK   42  A    between atoms: _100  and  _102
REMARK   43  A    between atoms: _102  and  _103
REMARK   44  A    between atoms: _102  and  _105
REMARK   45  A    between atoms: _106  and  _107
REMARK   46  A    between atoms: _107  and  _108
REMARK   47  A    between atoms: _108  and  _109
REMARK   48  A    between atoms: _113  and  _115
REMARK   49  A    between atoms: _115  and  _116
REMARK   50  A    between atoms: _115  and  _118
REMARK   51  A    between atoms: _118  and  _119
REMARK   52  A    between atoms: _119  and  _120
REMARK   53  A    between atoms: _122  and  _124
REMARK   54  A    between atoms: _124  and  _125
REMARK   55  A    between atoms: _124  and  _127
REMARK   56  A    between atoms: _127  and  _128
REMARK   57  A    between atoms: _131  and  _133
REMARK   58  A    between atoms: _133  and  _134
REMARK   59  A    between atoms: _136  and  _138
REMARK   60  A    between atoms: _138  and  _139
REMARK   61  A    between atoms: _141  and  _143
REMARK   62  A    between atoms: _143  and  _144
REMARK   63  A    between atoms: _143  and  _146
REMARK   64  A    between atoms: _146  and  _147
REMARK   65  A    between atoms: _150  and  _152
REMARK   66  A    between atoms: _152  and  _153
REMARK   67  A    between atoms: _155  and  _157
REMARK   68  A    between atoms: _157  and  _158
REMARK   69  A    between atoms: _160  and  _162
REMARK   70  A    between atoms: _162  and  _163
REMARK   71  A    between atoms: _162  and  _165
REMARK   72  A    between atoms: _165  and  _166
REMARK   73  A    between atoms: _169  and  _171
REMARK   74  A    between atoms: _171  and  _172
REMARK   75  A    between atoms: _171  and  _174
REMARK   76  A    between atoms: _177  and  _179
REMARK   77  A    between atoms: _179  and  _180
REMARK   78  A    between atoms: _179  and  _182
REMARK   79  A    between atoms: _182  and  _183
REMARK   80  A    between atoms: _187  and  _188
REMARK   81  A    between atoms: _193  and  _195
REMARK   82  A    between atoms: _195  and  _196
REMARK   83  A    between atoms: _195  and  _198
REMARK   84  A    between atoms: _198  and  _199
REMARK   85  A    between atoms: _203  and  _204
REMARK   86  A    between atoms: _209  and  _211
REMARK   87  A    between atoms: _211  and  _212
REMARK   88  A    between atoms: _211  and  _214
REMARK   89  A    between atoms: _217  and  _219
REMARK   90  A    between atoms: _219  and  _220
REMARK   91  A    between atoms: _219  and  _222
REMARK   92  A    between atoms: _222  and  _223
REMARK   93  A    between atoms: _228  and  _230
REMARK   94  A    between atoms: _230  and  _231
REMARK   95  A    between atoms: _230  and  _233
REMARK   96  A    between atoms: _233  and  _234
REMARK   97  A    between atoms: _237  and  _239
REMARK   98  A    between atoms: _239  and  _240
REMARK   99  A    between atoms: _239  and  _242
REMARK  100  A    between atoms: _242  and  _243
REMARK  101  A    between atoms: _246  and  _248
REMARK  102  A    between atoms: _248  and  _249
REMARK  103  A    between atoms: _251  and  _253
REMARK  104  A    between atoms: _253  and  _254
REMARK  105  A    between atoms: _253  and  _256
REMARK  106  A    between atoms: _256  and  _257
REMARK  107  A    between atoms: _257  and  _258
REMARK  108  A    between atoms: _258  and  _259
REMARK  109  A    between atoms: _268  and  _270
REMARK  110  A    between atoms: _270  and  _271
REMARK  111  A    between atoms: _270  and  _273
REMARK  112  A    between atoms: _273  and  _274
REMARK  113  A    between atoms: _279  and  _281
REMARK  114  A    between atoms: _281  and  _282
REMARK  115  A    between atoms: _281  and  _284
REMARK  116  A    between atoms: _284  and  _285
REMARK  117  A    between atoms: _285  and  _286
REMARK  118  A    between atoms: _286  and  _287
REMARK  119  A    between atoms: _296  and  _298
REMARK  120  A    between atoms: _298  and  _299
REMARK  121  A    between atoms: _298  and  _301
REMARK  122  A    between atoms: _301  and  _302
REMARK  123  A    between atoms: _305  and  _307
REMARK  124  A    between atoms: _307  and  _308
REMARK  125  A    between atoms: _307  and  _310
REMARK  126  A    between atoms: _310  and  _311
REMARK  127  A    between atoms: _314  and  _316
REMARK  128  A    between atoms: _316  and  _317
REMARK  129  A    between atoms: _316  and  _319
REMARK  130  A    between atoms: _319  and  _320
REMARK  131  A    between atoms: _323  and  _325
REMARK  132  A    between atoms: _325  and  _326
REMARK  133  A    between atoms: _325  and  _328
REMARK  134  A    between atoms: _328  and  _329
REMARK  135  A    between atoms: _332  and  _334
REMARK  136  A    between atoms: _334  and  _335
REMARK  137  A    between atoms: _337  and  _339
REMARK  138  A    between atoms: _339  and  _340
REMARK  139  A    between atoms: _343  and  _345
REMARK  140  A    between atoms: _345  and  _346
REMARK  141  A    between atoms: _345  and  _348
REMARK  142  A    between atoms: _348  and  _349
REMARK  143  A    between atoms: _352  and  _354
REMARK  144  A    between atoms: _354  and  _355
REMARK  145  A    between atoms: _354  and  _357
REMARK  146  A    between atoms: _357  and  _358
REMARK  147  A    between atoms: _361  and  _363
REMARK  148  A    between atoms: _363  and  _364
REMARK  149  A    between atoms: _363  and  _366
REMARK  150  A    between atoms: _366  and  _367
REMARK  151  A    between atoms: _370  and  _372
REMARK  152  A    between atoms: _372  and  _373
REMARK  153  A    between atoms: _372  and  _375
REMARK  154  A    between atoms: _378  and  _380
REMARK  155  A    between atoms: _380  and  _381
REMARK  156  A    between atoms: _380  and  _383
REMARK  157  A    between atoms: _384  and  _385
REMARK  158  A    between atoms: _385  and  _386
REMARK  159  A    between atoms: _386  and  _387
REMARK  160  A    between atoms: _391  and  _393
REMARK  161  A    between atoms: _393  and  _394
REMARK  162  A    between atoms: _393  and  _396
REMARK  163  A    between atoms: _396  and  _397
REMARK  164  A    between atoms: _397  and  _398
REMARK  165  A    between atoms: _400  and  _402
REMARK  166  A    between atoms: _402  and  _403
REMARK  167  A    between atoms: _402  and  _405
REMARK  168  A    between atoms: _405  and  _406
REMARK  169  A    between atoms: _409  and  _411
REMARK  170  A    between atoms: _411  and  _412
REMARK  171  A    between atoms: _414  and  _416
REMARK  172  A    between atoms: _416  and  _417
REMARK  173  A    between atoms: _419  and  _421
REMARK  174  A    between atoms: _421  and  _422
REMARK  175  A    between atoms: _421  and  _424
REMARK  176  A    between atoms: _424  and  _425
REMARK  177  A    between atoms: _428  and  _430
REMARK  178  A    between atoms: _430  and  _431
REMARK  179  A    between atoms: _433  and  _435
REMARK  180  A    between atoms: _435  and  _436
REMARK  181  A    between atoms: _438  and  _440
REMARK  182  A    between atoms: _440  and  _441
REMARK  183  A    between atoms: _440  and  _443
REMARK  184  A    between atoms: _443  and  _444
REMARK  185  A    between atoms: _450  and  _452
REMARK  186  A    between atoms: _452  and  _453
REMARK  187  A    between atoms: _452  and  _455
REMARK  188  A    between atoms: _455  and  _456
REMARK  189  A    between atoms: _459  and  _461
REMARK  190  A    between atoms: _461  and  _462
REMARK  191  A    between atoms: _461  and  _464
REMARK  192  A    between atoms: _467  and  _469
REMARK  193  A    between atoms: _469  and  _470
REMARK  194  A    between atoms: _469  and  _472
REMARK  195  A    between atoms: _472  and  _473
REMARK  196  A    between atoms: _476  and  _478
REMARK  197  A    between atoms: _478  and  _479
REMARK  198  A    between atoms: _478  and  _481
REMARK  199  A    between atoms: _481  and  _482
REMARK  200  A    between atoms: _486  and  _487
REMARK  201  A    between atoms: _492  and  _494
REMARK  202  A    between atoms: _494  and  _495
REMARK  203  A    between atoms: _494  and  _497
REMARK  204  A    between atoms: _500  and  _502
REMARK  205  A    between atoms: _502  and  _503
REMARK  206  A    between atoms: _502  and  _505
REMARK  207  A    between atoms: _505  and  _506
REMARK  208  A    between atoms: _511  and  _513
REMARK  209  A    between atoms: _513  and  _514
REMARK  210  A    between atoms: _513  and  _516
REMARK  211  A    between atoms: _516  and  _517
REMARK  212  A    between atoms: _520  and  _522
REMARK  213  A    between atoms: _522  and  _523
REMARK  214  A    between atoms: _522  and  _525
REMARK  215  A    between atoms: _525  and  _526
REMARK  216  A    between atoms: _529  and  _531
REMARK  217  A    between atoms: _531  and  _532
REMARK  218  A    between atoms: _534  and  _536
REMARK  219  A    between atoms: _536  and  _537
REMARK  220  A    between atoms: _536  and  _539
REMARK  221  A    between atoms: _539  and  _540
REMARK  222  A    between atoms: _540  and  _541
REMARK  223  A    between atoms: _541  and  _542
REMARK  224  A    between atoms: _551  and  _553
REMARK  225  A    between atoms: _553  and  _554
REMARK  226  A    between atoms: _553  and  _556
REMARK  227  A    between atoms: _556  and  _557
REMARK                            x       y       z     vdW  Elec       q    Type
REMARK                         _______ _______ _______ _____ _____    ______ ____
ROOT
ATOM      1  C   ILE A   3      25.072  23.317  13.275  0.00  0.00    +0.241 C 
ATOM      2  N   GLY A   4      24.952  23.290  14.610  0.00  0.00    -0.295 N 
ATOM      3  H   GLY A   4      25.048  24.162  15.168  0.00  0.00    +0.150 HD
ATOM      4  O   ILE A   3      24.878  22.324  12.596  0.00  0.00    -0.273 OA
ENDROOT
BRANCH   2   5
ATOM      5  CA  GLY A   4      24.685  22.020  15.262  0.00  0.00    +0.176 C 
BRANCH   5   6
ATOM      6  C   GLY A   4      23.617  22.133  16.341  0.00  0.00    +0.243 C 
ATOM      7  O   GLY A   4      23.241  23.183  16.836  0.00  0.00    -0.273 OA
ATOM      8  N   GLY A   5      23.151  20.928  16.667  0.00  0.00    -0.295 N 
ATOM      9  H   GLY A   5      23.541  20.086  16.197  0.00  0.00    +0.150 HD
BRANCH   8  10
ATOM     10  CA  GLY A   5      22.106  20.768  17.669  0.00  0.00    +0.176 C 
BRANCH  10  11
ATOM     11  C   GLY A   5      21.882  19.289  17.901  0.00  0.00    +0.243 C 
ATOM     12  N   ILE A   6      20.636  18.953  18.219  0.00  0.00    -0.297 N 
ATOM     13  H   ILE A   6      19.900  19.675  18.355  0.00  0.00    +0.150 HD
ATOM     14  O   GLY A   5      22.824  18.493  17.827  0.00  0.00    -0.273 OA
BRANCH  12  15
ATOM     15  CA  ILE A   6      20.338  17.525  18.371  0.00  0.00    +0.149 C 
BRANCH  15  16
ATOM     16  C   ILE A   6      20.630  16.812  17.041  0.00  0.00    +0.241 C 
ATOM     17  N   GLY A   7      21.362  15.711  17.160  0.00  0.00    -0.295 N 
ATOM     18  H   GLY A   7      21.655  15.405  18.110  0.00  0.00    +0.150 HD
ATOM     19  O   ILE A   6      20.207  17.232  15.978  0.00  0.00    -0.273 OA
BRANCH  17  20
ATOM     20  CA  GLY A   7      21.768  14.918  16.015  0.00  0.00    +0.176 C 
BRANCH  20  21
ATOM     21  C   GLY A   7      23.060  15.409  15.351  0.00  0.00    +0.243 C 
ATOM     22  N   GLY A   8      23.615  16.524  15.842  0.00  0.00    -0.296 N 
ATOM     23  H   GLY A   8      23.149  17.081  16.587  0.00  0.00    +0.150 HD
ATOM     24  O   GLY A   7      23.498  14.783  14.411  0.00  0.00    -0.273 OA
BRANCH  22  25
ATOM     25  CA  GLY A   8      24.883  16.917  15.294  0.00  0.00    +0.163 C 
BRANCH  25  26
ATOM     26  C   GLY A   8      24.756  18.136  14.379  0.00  0.00    +0.229 C 
ATOM     27  O   GLY A   8      23.899  18.966  14.537  0.00  0.00    -0.286 OA
ENDBRANCH  25  26
ENDBRANCH  22  25
ENDBRANCH  20  21
ENDBRANCH  17  20
ENDBRANCH  15  16
BRANCH  15  28
ATOM     28  CB  ILE A   6      18.876  17.358  18.861  0.00  0.00    +0.027 C 
ATOM     29  CG2 ILE A   6      18.369  15.938  18.627  0.00  0.00    +0.002 C 
BRANCH  28  30
ATOM     30  CG1 ILE A   6      18.780  17.772  20.315  0.00  0.00    +0.002 C 
ATOM     31  CD1 ILE A   6      17.400  17.841  20.927  0.00  0.00    +0.000 C 
ENDBRANCH  28  30
ENDBRANCH  15  28
ENDBRANCH  12  15
ENDBRANCH  10  11
ENDBRANCH   8  10
ENDBRANCH   5   6
ENDBRANCH   2   5
BRANCH   1  32
ATOM     32  CA  ILE A   3      25.442  24.649  12.668  0.00  0.00    +0.149 C 
BRANCH  32  35
ATOM     33  C   MET A   2      27.528  24.937  11.413  0.00  0.00    +0.241 C 
ATOM     34  O   MET A   2      27.994  25.755  12.214  0.00  0.00    -0.273 OA
ATOM     35  N   ILE A   3      26.320  24.401  11.521  0.00  0.00    -0.297 N 
ATOM     36  H   ILE A   3      25.981  23.778  10.760  0.00  0.00    +0.150 HD
BRANCH  33  37
ATOM     37  CA  MET A   2      28.374  24.519  10.235  0.00  0.00    +0.149 C 
BRANCH  37  39
ATOM     38  C   LYS A   1      28.546  26.153   8.417  0.00  0.00    +0.243 C 
ATOM     39  N   MET A   2      28.929  25.721   9.621  0.00  0.00    -0.297 N 
ATOM     40  H   MET A   2      29.650  26.261  10.141  0.00  0.00    +0.150 HD
ATOM     41  O   LYS A   1      27.803  25.502   7.681  0.00  0.00    -0.273 OA
BRANCH  38  42
ATOM     42  CA  LYS A   1      28.981  27.541   8.021  0.00  0.00    +0.167 C 
BRANCH  42  43
ATOM     43  N   LYS A   1      29.092  27.588   6.563  0.00  0.00    -0.234 NA
ATOM     44  H   LYS A   1      28.423  27.013   6.011  0.00  0.00    +0.142 HD
ENDBRANCH  42  43
BRANCH  42  45
ATOM     45  CB  LYS A   1      27.961  28.600   8.492  0.00  0.00    -0.005 C 
ATOM     46  CG  LYS A   1      27.933  28.862  10.008  0.00  0.00    -0.031 C 
BRANCH  46  47
ATOM     47  CD  LYS A   1      26.904  29.864  10.505  0.00  0.00    +0.002 C 
BRANCH  47  48
ATOM     48  CE  LYS A   1      27.087  30.264  11.971  0.00  0.00    -0.081 C 
BRANCH  48  49
ATOM     49  NZ  LYS A   1      26.228  31.137  12.703  0.00  0.00    +0.381 N 
ATOM     50  HZ1 LYS A   1      26.584  31.236  13.675  0.00  0.00    -0.089 HD
ATOM     51  HZ2 LYS A   1      25.267  30.739  12.723  0.00  0.00    -0.089 HD
ATOM     52  HZ3 LYS A   1      26.209  32.069  12.242  0.00  0.00    -0.089 HD
ENDBRANCH  48  49
ENDBRANCH  47  48
ENDBRANCH  46  47
ENDBRANCH  42  45
ENDBRANCH  38  42
ENDBRANCH  37  39
BRANCH  37  53
ATOM     53  CB  MET A   2      29.550  23.614  10.602  0.00  0.00    +0.041 C 
BRANCH  53  54
ATOM     54  CG  MET A   2      30.134  23.206   9.238  0.00  0.00    +0.060 C 
BRANCH  54  55
ATOM     55  SD  MET A   2      30.992  21.655   9.200  0.00  0.00    -0.139 S 
ATOM     56  CE  MET A   2      29.271  20.915   9.150  0.00  0.00    +0.069 C 
ENDBRANCH  54  55
ENDBRANCH  53  54
ENDBRANCH  37  53
ENDBRANCH  33  37
ENDBRANCH  32  35
BRANCH  32  57
ATOM     57  CB  ILE A   3      24.209  25.471  12.299  0.00  0.00    +0.027 C 
ATOM     58  CG2 ILE A   3      24.609  26.867  11.943  0.00  0.00    +0.002 C 
BRANCH  57  59
ATOM     59  CG1 ILE A   3      23.371  24.801  11.205  0.00  0.00    +0.002 C 
ATOM     60  CD1 ILE A   3      22.016  25.457  10.960  0.00  0.00    +0.000 C 
ENDBRANCH  57  59
ENDBRANCH  32  57
ENDBRANCH   1  32
TORSDOF 27
REMARK  Name = ../refined-set-2016/3a2o/3a2o_pocket.pdb
REMARK  227 active torsions:
REMARK  status: ('A' for Active; 'I' for Inactive)
REMARK    1  A    between atoms: _1  and  _3
REMARK    2  A    between atoms: _3  and  _4
REMARK    3  A    between atoms: _3  and  _6
REMARK    4  A    between atoms: _6  and  _7
REMARK    5  A    between atoms: _7  and  _8
REMARK    6  A    between atoms: _8  and  _9
REMARK    7  A    between atoms: _18  and  _20
REMARK    8  A    between atoms: _20  and  _21
REMARK    9  A    between atoms: _20  and  _23
REMARK   10  A    between atoms: _23  and  _24
REMARK   11  A    between atoms: _27  and  _29
REMARK   12  A    between atoms: _29  and  _30
REMARK   13  A    between atoms: _29  and  _32
REMARK   14  A    between atoms: _32  and  _33
REMARK   15  A    between atoms: _36  and  _38
REMARK   16  A    between atoms: _38  and  _39
REMARK   17  A    between atoms: _38  and  _41
REMARK   18  A    between atoms: _41  and  _42
REMARK   19  A    between atoms: _45  and  _47
REMARK   20  A    between atoms: _47  and  _48
REMARK   21  A    between atoms: _47  and  _50
REMARK   22  A    between atoms: _50  and  _51
REMARK   23  A    between atoms: _54  and  _56
REMARK   24  A    between atoms: _56  and  _57
REMARK   25  A    between atoms: _59  and  _61
REMARK   26  A    between atoms: _61  and  _62
REMARK   27  A    between atoms: _65  and  _67
REMARK   28  A    between atoms: _67  and  _68
REMARK   29  A    between atoms: _67  and  _70
REMARK   30  A    between atoms: _70  and  _71
REMARK   31  A    between atoms: _74  and  _76
REMARK   32  A    between atoms: _76  and  _77
REMARK   33  A    between atoms: _76  and  _79
REMARK   34  A    between atoms: _79  and  _80
REMARK   35  A    between atoms: _83  and  _85
REMARK   36  A    between atoms: _85  and  _86
REMARK   37  A    between atoms: _85  and  _88
REMARK   38  A    between atoms: _88  and  _89
REMARK   39  A    between atoms: _92  and  _94
REMARK   40  A    between atoms: _94  and  _95
REMARK   41  A    between atoms: _94  and  _97
REMARK   42  A    between atoms: _100  and  _102
REMARK   43  A    between atoms: _102  and  _103
REMARK   44  A    between atoms: _102  and  _105
REMARK   45  A    between atoms: _106  and  _107
REMARK   46  A    between atoms: _107  and  _108
REMARK   47  A    between atoms: _108  and  _109
REMARK   48  A    between atoms: _113  and  _115
REMARK   49  A    between atoms: _115  and  _116
REMARK   50  A    between atoms: _115  and  _118
REMARK   51  A    between atoms: _118  and  _119
REMARK   52  A    between atoms: _119  and  _120
REMARK   53  A    between atoms: _122  and  _124
REMARK   54  A    between atoms: _124  and  _125
REMARK   55  A    between atoms: _124  and  _127
REMARK   56  A    between atoms: _127  and  _128
REMARK   57  A    between atoms: _131  and  _133
REMARK   58  A    between atoms: _133  and  _134
REMARK   59  A    between atoms: _136  and  _138
REMARK   60  A    between atoms: _138  and  _139
REMARK   61  A    between atoms: _141  and  _143
REMARK   62  A    between atoms: _143  and  _144
REMARK   63  A    between atoms: _143  and  _146
REMARK   64  A    between atoms: _146  and  _147
REMARK   65  A    between atoms: _150  and  _152
REMARK   66  A    between atoms: _152  and  _153
REMARK   67  A    between atoms: _155  and  _157
REMARK   68  A    between atoms: _157  and  _158
REMARK   69  A    between atoms: _160  and  _162
REMARK   70  A    between atoms: _162  and  _163
REMARK   71  A    between atoms: _162  and  _165
REMARK   72  A    between atoms: _165  and  _166
REMARK   73  A    between atoms: _169  and  _171
REMARK   74  A    between atoms: _171  and  _172
REMARK   75  A    between atoms: _171  and  _174
REMARK   76  A    between atoms: _177  and  _179
REMARK   77  A    between atoms: _179  and  _180
REMARK   78  A    between atoms: _179  and  _182
REMARK   79  A    between atoms: _182  and  _183
REMARK   80  A    between atoms: _187  and  _188
REMARK   81  A    between atoms: _193  and  _195
REMARK   82  A    between atoms: _195  and  _196
REMARK   83  A    between atoms: _195  and  _198
REMARK   84  A    between atoms: _198  and  _199
REMARK   85  A    between atoms: _203  and  _204
REMARK   86  A    between atoms: _209  and  _211
REMARK   87  A    between atoms: _211  and  _212
REMARK   88  A    between atoms: _211  and  _214
REMARK   89  A    between atoms: _217  and  _219
REMARK   90  A    between atoms: _219  and  _220
REMARK   91  A    between atoms: _219  and  _222
REMARK   92  A    between atoms: _222  and  _223
REMARK   93  A    between atoms: _228  and  _230
REMARK   94  A    between atoms: _230  and  _231
REMARK   95  A    between atoms: _230  and  _233
REMARK   96  A    between atoms: _233  and  _234
REMARK   97  A    between atoms: _237  and  _239
REMARK   98  A    between atoms: _239  and  _240
REMARK   99  A    between atoms: _239  and  _242
REMARK  100  A    between atoms: _242  and  _243
REMARK  101  A    between atoms: _246  and  _248
REMARK  102  A    between atoms: _248  and  _249
REMARK  103  A    between atoms: _251  and  _253
REMARK  104  A    between atoms: _253  and  _254
REMARK  105  A    between atoms: _253  and  _256
REMARK  106  A    between atoms: _256  and  _257
REMARK  107  A    between atoms: _257  and  _258
REMARK  108  A    between atoms: _258  and  _259
REMARK  109  A    between atoms: _268  and  _270
REMARK  110  A    between atoms: _270  and  _271
REMARK  111  A    between atoms: _270  and  _273
REMARK  112  A    between atoms: _273  and  _274
REMARK  113  A    between atoms: _279  and  _281
REMARK  114  A    between atoms: _281  and  _282
REMARK  115  A    between atoms: _281  and  _284
REMARK  116  A    between atoms: _284  and  _285
REMARK  117  A    between atoms: _285  and  _286
REMARK  118  A    between atoms: _286  and  _287
REMARK  119  A    between atoms: _296  and  _298
REMARK  120  A    between atoms: _298  and  _299
REMARK  121  A    between atoms: _298  and  _301
REMARK  122  A    between atoms: _301  and  _302
REMARK  123  A    between atoms: _305  and  _307
REMARK  124  A    between atoms: _307  and  _308
REMARK  125  A    between atoms: _307  and  _310
REMARK  126  A    between atoms: _310  and  _311
REMARK  127  A    between atoms: _314  and  _316
REMARK  128  A    between atoms: _316  and  _317
REMARK  129  A    between atoms: _316  and  _319
REMARK  130  A    between atoms: _319  and  _320
REMARK  131  A    between atoms: _323  and  _325
REMARK  132  A    between atoms: _325  and  _326
REMARK  133  A    between atoms: _325  and  _328
REMARK  134  A    between atoms: _328  and  _329
REMARK  135  A    between atoms: _332  and  _334
REMARK  136  A    between atoms: _334  and  _335
REMARK  137  A    between atoms: _337  and  _339
REMARK  138  A    between atoms: _339  and  _340
REMARK  139  A    between atoms: _343  and  _345
REMARK  140  A    between atoms: _345  and  _346
REMARK  141  A    between atoms: _345  and  _348
REMARK  142  A    between atoms: _348  and  _349
REMARK  143  A    between atoms: _352  and  _354
REMARK  144  A    between atoms: _354  and  _355
REMARK  145  A    between atoms: _354  and  _357
REMARK  146  A    between atoms: _357  and  _358
REMARK  147  A    between atoms: _361  and  _363
REMARK  148  A    between atoms: _363  and  _364
REMARK  149  A    between atoms: _363  and  _366
REMARK  150  A    between atoms: _366  and  _367
REMARK  151  A    between atoms: _370  and  _372
REMARK  152  A    between atoms: _372  and  _373
REMARK  153  A    between atoms: _372  and  _375
REMARK  154  A    between atoms: _378  and  _380
REMARK  155  A    between atoms: _380  and  _381
REMARK  156  A    between atoms: _380  and  _383
REMARK  157  A    between atoms: _384  and  _385
REMARK  158  A    between atoms: _385  and  _386
REMARK  159  A    between atoms: _386  and  _387
REMARK  160  A    between atoms: _391  and  _393
REMARK  161  A    between atoms: _393  and  _394
REMARK  162  A    between atoms: _393  and  _396
REMARK  163  A    between atoms: _396  and  _397
REMARK  164  A    between atoms: _397  and  _398
REMARK  165  A    between atoms: _400  and  _402
REMARK  166  A    between atoms: _402  and  _403
REMARK  167  A    between atoms: _402  and  _405
REMARK  168  A    between atoms: _405  and  _406
REMARK  169  A    between atoms: _409  and  _411
REMARK  170  A    between atoms: _411  and  _412
REMARK  171  A    between atoms: _414  and  _416
REMARK  172  A    between atoms: _416  and  _417
REMARK  173  A    between atoms: _419  and  _421
REMARK  174  A    between atoms: _421  and  _422
REMARK  175  A    between atoms: _421  and  _424
REMARK  176  A    between atoms: _424  and  _425
REMARK  177  A    between atoms: _428  and  _430
REMARK  178  A    between atoms: _430  and  _431
REMARK  179  A    between atoms: _433  and  _435
REMARK  180  A    between atoms: _435  and  _436
REMARK  181  A    between atoms: _438  and  _440
REMARK  182  A    between atoms: _440  and  _441
REMARK  183  A    between atoms: _440  and  _443
REMARK  184  A    between atoms: _443  and  _444
REMARK  185  A    between atoms: _450  and  _452
REMARK  186  A    between atoms: _452  and  _453
REMARK  187  A    between atoms: _452  and  _455
REMARK  188  A    between atoms: _455  and  _456
REMARK  189  A    between atoms: _459  and  _461
REMARK  190  A    between atoms: _461  and  _462
REMARK  191  A    between atoms: _461  and  _464
REMARK  192  A    between atoms: _467  and  _469
REMARK  193  A    between atoms: _469  and  _470
REMARK  194  A    between atoms: _469  and  _472
REMARK  195  A    between atoms: _472  and  _473
REMARK  196  A    between atoms: _476  and  _478
REMARK  197  A    between atoms: _478  and  _479
REMARK  198  A    between atoms: _478  and  _481
REMARK  199  A    between atoms: _481  and  _482
REMARK  200  A    between atoms: _486  and  _487
REMARK  201  A    between atoms: _492  and  _494
REMARK  202  A    between atoms: _494  and  _495
REMARK  203  A    between atoms: _494  and  _497
REMARK  204  A    between atoms: _500  and  _502
REMARK  205  A    between atoms: _502  and  _503
REMARK  206  A    between atoms: _502  and  _505
REMARK  207  A    between atoms: _505  and  _506
REMARK  208  A    between atoms: _511  and  _513
REMARK  209  A    between atoms: _513  and  _514
REMARK  210  A    between atoms: _513  and  _516
REMARK  211  A    between atoms: _516  and  _517
REMARK  212  A    between atoms: _520  and  _522
REMARK  213  A    between atoms: _522  and  _523
REMARK  214  A    between atoms: _522  and  _525
REMARK  215  A    between atoms: _525  and  _526
REMARK  216  A    between atoms: _529  and  _531
REMARK  217  A    between atoms: _531  and  _532
REMARK  218  A    between atoms: _534  and  _536
REMARK  219  A    between atoms: _536  and  _537
REMARK  220  A    between atoms: _536  and  _539
REMARK  221  A    between atoms: _539  and  _540
REMARK  222  A    between atoms: _540  and  _541
REMARK  223  A    between atoms: _541  and  _542
REMARK  224  A    between atoms: _551  and  _553
REMARK  225  A    between atoms: _553  and  _554
REMARK  226  A    between atoms: _553  and  _556
REMARK  227  A    between atoms: _556  and  _557
REMARK                            x       y       z     vdW  Elec       q    Type
REMARK                         _______ _______ _______ _____ _____    ______ ____
ROOT
ATOM      1  CA  ILE A   1      24.859  20.345   9.094  0.00  0.00    +0.133 C 
ENDROOT
BRANCH   1   2
ATOM      2  N   ILE A   1      25.063  20.273  10.535  0.00  0.00    -0.239 NA
ATOM      3  H   ILE A   1      24.883  21.128  11.099  0.00  0.00    +0.142 HD
ENDBRANCH   1   2
BRANCH   1   4
ATOM      4  CB  ILE A   1      23.382  20.412   8.684  0.00  0.00    +0.023 C 
ATOM      5  CG2 ILE A   1      22.657  19.148   9.105  0.00  0.00    +0.002 C 
BRANCH   4   6
ATOM      6  CG1 ILE A   1      22.688  21.672   9.189  0.00  0.00    +0.002 C 
ATOM      7  CD1 ILE A   1      21.291  21.909   8.634  0.00  0.00    +0.000 C 
ENDBRANCH   4   6
ENDBRANCH   1   4
BRANCH   1   8
ATOM      8  C   ILE A   1      25.626  21.553   8.560  0.00  0.00    +0.224 C 
ATOM      9  O   ILE A   1      25.852  22.543   9.223  0.00  0.00    -0.287 OA
ENDBRANCH   1   8
TORSDOF 4
REMARK  Name = ../refined-set-2016/3a2o/3a2o_pocket.pdb
REMARK  227 active torsions:
REMARK  status: ('A' for Active; 'I' for Inactive)
REMARK    1  A    between atoms: _1  and  _3
REMARK    2  A    between atoms: _3  and  _4
REMARK    3  A    between atoms: _3  and  _6
REMARK    4  A    between atoms: _6  and  _7
REMARK    5  A    between atoms: _7  and  _8
REMARK    6  A    between atoms: _8  and  _9
REMARK    7  A    between atoms: _18  and  _20
REMARK    8  A    between atoms: _20  and  _21
REMARK    9  A    between atoms: _20  and  _23
REMARK   10  A    between atoms: _23  and  _24
REMARK   11  A    between atoms: _27  and  _29
REMARK   12  A    between atoms: _29  and  _30
REMARK   13  A    between atoms: _29  and  _32
REMARK   14  A    between atoms: _32  and  _33
REMARK   15  A    between atoms: _36  and  _38
REMARK   16  A    between atoms: _38  and  _39
REMARK   17  A    between atoms: _38  and  _41
REMARK   18  A    between atoms: _41  and  _42
REMARK   19  A    between atoms: _45  and  _47
REMARK   20  A    between atoms: _47  and  _48
REMARK   21  A    between atoms: _47  and  _50
REMARK   22  A    between atoms: _50  and  _51
REMARK   23  A    between atoms: _54  and  _56
REMARK   24  A    between atoms: _56  and  _57
REMARK   25  A    between atoms: _59  and  _61
REMARK   26  A    between atoms: _61  and  _62
REMARK   27  A    between atoms: _65  and  _67
REMARK   28  A    between atoms: _67  and  _68
REMARK   29  A    between atoms: _67  and  _70
REMARK   30  A    between atoms: _70  and  _71
REMARK   31  A    between atoms: _74  and  _76
REMARK   32  A    between atoms: _76  and  _77
REMARK   33  A    between atoms: _76  and  _79
REMARK   34  A    between atoms: _79  and  _80
REMARK   35  A    between atoms: _83  and  _85
REMARK   36  A    between atoms: _85  and  _86
REMARK   37  A    between atoms: _85  and  _88
REMARK   38  A    between atoms: _88  and  _89
REMARK   39  A    between atoms: _92  and  _94
REMARK   40  A    between atoms: _94  and  _95
REMARK   41  A    between atoms: _94  and  _97
REMARK   42  A    between atoms: _100  and  _102
REMARK   43  A    between atoms: _102  and  _103
REMARK   44  A    between atoms: _102  and  _105
REMARK   45  A    between atoms: _106  and  _107
REMARK   46  A    between atoms: _107  and  _108
REMARK   47  A    between atoms: _108  and  _109
REMARK   48  A    between atoms: _113  and  _115
REMARK   49  A    between atoms: _115  and  _116
REMARK   50  A    between atoms: _115  and  _118
REMARK   51  A    between atoms: _118  and  _119
REMARK   52  A    between atoms: _119  and  _120
REMARK   53  A    between atoms: _122  and  _124
REMARK   54  A    between atoms: _124  and  _125
REMARK   55  A    between atoms: _124  and  _127
REMARK   56  A    between atoms: _127  and  _128
REMARK   57  A    between atoms: _131  and  _133
REMARK   58  A    between atoms: _133  and  _134
REMARK   59  A    between atoms: _136  and  _138
REMARK   60  A    between atoms: _138  and  _139
REMARK   61  A    between atoms: _141  and  _143
REMARK   62  A    between atoms: _143  and  _144
REMARK   63  A    between atoms: _143  and  _146
REMARK   64  A    between atoms: _146  and  _147
REMARK   65  A    between atoms: _150  and  _152
REMARK   66  A    between atoms: _152  and  _153
REMARK   67  A    between atoms: _155  and  _157
REMARK   68  A    between atoms: _157  and  _158
REMARK   69  A    between atoms: _160  and  _162
REMARK   70  A    between atoms: _162  and  _163
REMARK   71  A    between atoms: _162  and  _165
REMARK   72  A    between atoms: _165  and  _166
REMARK   73  A    between atoms: _169  and  _171
REMARK   74  A    between atoms: _171  and  _172
REMARK   75  A    between atoms: _171  and  _174
REMARK   76  A    between atoms: _177  and  _179
REMARK   77  A    between atoms: _179  and  _180
REMARK   78  A    between atoms: _179  and  _182
REMARK   79  A    between atoms: _182  and  _183
REMARK   80  A    between atoms: _187  and  _188
REMARK   81  A    between atoms: _193  and  _195
REMARK   82  A    between atoms: _195  and  _196
REMARK   83  A    between atoms: _195  and  _198
REMARK   84  A    between atoms: _198  and  _199
REMARK   85  A    between atoms: _203  and  _204
REMARK   86  A    between atoms: _209  and  _211
REMARK   87  A    between atoms: _211  and  _212
REMARK   88  A    between atoms: _211  and  _214
REMARK   89  A    between atoms: _217  and  _219
REMARK   90  A    between atoms: _219  and  _220
REMARK   91  A    between atoms: _219  and  _222
REMARK   92  A    between atoms: _222  and  _223
REMARK   93  A    between atoms: _228  and  _230
REMARK   94  A    between atoms: _230  and  _231
REMARK   95  A    between atoms: _230  and  _233
REMARK   96  A    between atoms: _233  and  _234
REMARK   97  A    between atoms: _237  and  _239
REMARK   98  A    between atoms: _239  and  _240
REMARK   99  A    between atoms: _239  and  _242
REMARK  100  A    between atoms: _242  and  _243
REMARK  101  A    between atoms: _246  and  _248
REMARK  102  A    between atoms: _248  and  _249
REMARK  103  A    between atoms: _251  and  _253
REMARK  104  A    between atoms: _253  and  _254
REMARK  105  A    between atoms: _253  and  _256
REMARK  106  A    between atoms: _256  and  _257
REMARK  107  A    between atoms: _257  and  _258
REMARK  108  A    between atoms: _258  and  _259
REMARK  109  A    between atoms: _268  and  _270
REMARK  110  A    between atoms: _270  and  _271
REMARK  111  A    between atoms: _270  and  _273
REMARK  112  A    between atoms: _273  and  _274
REMARK  113  A    between atoms: _279  and  _281
REMARK  114  A    between atoms: _281  and  _282
REMARK  115  A    between atoms: _281  and  _284
REMARK  116  A    between atoms: _284  and  _285
REMARK  117  A    between atoms: _285  and  _286
REMARK  118  A    between atoms: _286  and  _287
REMARK  119  A    between atoms: _296  and  _298
REMARK  120  A    between atoms: _298  and  _299
REMARK  121  A    between atoms: _298  and  _301
REMARK  122  A    between atoms: _301  and  _302
REMARK  123  A    between atoms: _305  and  _307
REMARK  124  A    between atoms: _307  and  _308
REMARK  125  A    between atoms: _307  and  _310
REMARK  126  A    between atoms: _310  and  _311
REMARK  127  A    between atoms: _314  and  _316
REMARK  128  A    between atoms: _316  and  _317
REMARK  129  A    between atoms: _316  and  _319
REMARK  130  A    between atoms: _319  and  _320
REMARK  131  A    between atoms: _323  and  _325
REMARK  132  A    between atoms: _325  and  _326
REMARK  133  A    between atoms: _325  and  _328
REMARK  134  A    between atoms: _328  and  _329
REMARK  135  A    between atoms: _332  and  _334
REMARK  136  A    between atoms: _334  and  _335
REMARK  137  A    between atoms: _337  and  _339
REMARK  138  A    between atoms: _339  and  _340
REMARK  139  A    between atoms: _343  and  _345
REMARK  140  A    between atoms: _345  and  _346
REMARK  141  A    between atoms: _345  and  _348
REMARK  142  A    between atoms: _348  and  _349
REMARK  143  A    between atoms: _352  and  _354
REMARK  144  A    between atoms: _354  and  _355
REMARK  145  A    between atoms: _354  and  _357
REMARK  146  A    between atoms: _357  and  _358
REMARK  147  A    between atoms: _361  and  _363
REMARK  148  A    between atoms: _363  and  _364
REMARK  149  A    between atoms: _363  and  _366
REMARK  150  A    between atoms: _366  and  _367
REMARK  151  A    between atoms: _370  and  _372
REMARK  152  A    between atoms: _372  and  _373
REMARK  153  A    between atoms: _372  and  _375
REMARK  154  A    between atoms: _378  and  _380
REMARK  155  A    between atoms: _380  and  _381
REMARK  156  A    between atoms: _380  and  _383
REMARK  157  A    between atoms: _384  and  _385
REMARK  158  A    between atoms: _385  and  _386
REMARK  159  A    between atoms: _386  and  _387
REMARK  160  A    between atoms: _391  and  _393
REMARK  161  A    between atoms: _393  and  _394
REMARK  162  A    between atoms: _393  and  _396
REMARK  163  A    between atoms: _396  and  _397
REMARK  164  A    between atoms: _397  and  _398
REMARK  165  A    between atoms: _400  and  _402
REMARK  166  A    between atoms: _402  and  _403
REMARK  167  A    between atoms: _402  and  _405
REMARK  168  A    between atoms: _405  and  _406
REMARK  169  A    between atoms: _409  and  _411
REMARK  170  A    between atoms: _411  and  _412
REMARK  171  A    between atoms: _414  and  _416
REMARK  172  A    between atoms: _416  and  _417
REMARK  173  A    between atoms: _419  and  _421
REMARK  174  A    between atoms: _421  and  _422
REMARK  175  A    between atoms: _421  and  _424
REMARK  176  A    between atoms: _424  and  _425
REMARK  177  A    between atoms: _428  and  _430
REMARK  178  A    between atoms: _430  and  _431
REMARK  179  A    between atoms: _433  and  _435
REMARK  180  A    between atoms: _435  and  _436
REMARK  181  A    between atoms: _438  and  _440
REMARK  182  A    between atoms: _440  and  _441
REMARK  183  A    between atoms: _440  and  _443
REMARK  184  A    between atoms: _443  and  _444
REMARK  185  A    between atoms: _450  and  _452
REMARK  186  A    between atoms: _452  and  _453
REMARK  187  A    between atoms: _452  and  _455
REMARK  188  A    between atoms: _455  and  _456
REMARK  189  A    between atoms: _459  and  _461
REMARK  190  A    between atoms: _461  and  _462
REMARK  191  A    between atoms: _461  and  _464
REMARK  192  A    between atoms: _467  and  _469
REMARK  193  A    between atoms: _469  and  _470
REMARK  194  A    between atoms: _469  and  _472
REMARK  195  A    between atoms: _472  and  _473
REMARK  196  A    between atoms: _476  and  _478
REMARK  197  A    between atoms: _478  and  _479
REMARK  198  A    between atoms: _478  and  _481
REMARK  199  A    between atoms: _481  and  _482
REMARK  200  A    between atoms: _486  and  _487
REMARK  201  A    between atoms: _492  and  _494
REMARK  202  A    between atoms: _494  and  _495
REMARK  203  A    between atoms: _494  and  _497
REMARK  204  A    between atoms: _500  and  _502
REMARK  205  A    between atoms: _502  and  _503
REMARK  206  A    between atoms: _502  and  _505
REMARK  207  A    between atoms: _505  and  _506
REMARK  208  A    between atoms: _511  and  _513
REMARK  209  A    between atoms: _513  and  _514
REMARK  210  A    between atoms: _513  and  _516
REMARK  211  A    between atoms: _516  and  _517
REMARK  212  A    between atoms: _520  and  _522
REMARK  213  A    between atoms: _522  and  _523
REMARK  214  A    between atoms: _522  and  _525
REMARK  215  A    between atoms: _525  and  _526
REMARK  216  A    between atoms: _529  and  _531
REMARK  217  A    between atoms: _531  and  _532
REMARK  218  A    between atoms: _534  and  _536
REMARK  219  A    between atoms: _536  and  _537
REMARK  220  A    between atoms: _536  and  _539
REMARK  221  A    between atoms: _539  and  _540
REMARK  222  A    between atoms: _540  and  _541
REMARK  223  A    between atoms: _541  and  _542
REMARK  224  A    between atoms: _551  and  _553
REMARK  225  A    between atoms: _553  and  _554
REMARK  226  A    between atoms: _553  and  _556
REMARK  227  A    between atoms: _556  and  _557
REMARK                            x       y       z     vdW  Elec       q    Type
REMARK                         _______ _______ _______ _____ _____    ______ ____
ROOT
ATOM      1  CA  VAL A   1      24.789  25.598   5.318  0.00  0.00    +0.133 C 
ENDROOT
BRANCH   1   2
ATOM      2  CB  VAL A   1      23.840  26.181   6.406  0.00  0.00    +0.023 C 
ATOM      3  CG2 VAL A   1      24.630  26.962   7.442  0.00  0.00    +0.002 C 
ATOM      4  CG1 VAL A   1      22.988  25.081   7.020  0.00  0.00    +0.002 C 
ENDBRANCH   1   2
BRANCH   1   5
ATOM      5  N   VAL A   1      25.711  24.636   5.910  0.00  0.00    -0.239 NA
ATOM      6  H   VAL A   1      26.517  25.008   6.452  0.00  0.00    +0.142 HD
ENDBRANCH   1   5
BRANCH   1   7
ATOM      7  C   VAL A   1      25.575  26.696   4.619  0.00  0.00    +0.224 C 
ATOM      8  O   VAL A   1      26.784  26.855   4.804  0.00  0.00    -0.287 OA
ENDBRANCH   1   7
TORSDOF 3
REMARK  Name = ../refined-set-2016/3a2o/3a2o_pocket.pdb
REMARK  227 active torsions:
REMARK  status: ('A' for Active; 'I' for Inactive)
REMARK    1  A    between atoms: _1  and  _3
REMARK    2  A    between atoms: _3  and  _4
REMARK    3  A    between atoms: _3  and  _6
REMARK    4  A    between atoms: _6  and  _7
REMARK    5  A    between atoms: _7  and  _8
REMARK    6  A    between atoms: _8  and  _9
REMARK    7  A    between atoms: _18  and  _20
REMARK    8  A    between atoms: _20  and  _21
REMARK    9  A    between atoms: _20  and  _23
REMARK   10  A    between atoms: _23  and  _24
REMARK   11  A    between atoms: _27  and  _29
REMARK   12  A    between atoms: _29  and  _30
REMARK   13  A    between atoms: _29  and  _32
REMARK   14  A    between atoms: _32  and  _33
REMARK   15  A    between atoms: _36  and  _38
REMARK   16  A    between atoms: _38  and  _39
REMARK   17  A    between atoms: _38  and  _41
REMARK   18  A    between atoms: _41  and  _42
REMARK   19  A    between atoms: _45  and  _47
REMARK   20  A    between atoms: _47  and  _48
REMARK   21  A    between atoms: _47  and  _50
REMARK   22  A    between atoms: _50  and  _51
REMARK   23  A    between atoms: _54  and  _56
REMARK   24  A    between atoms: _56  and  _57
REMARK   25  A    between atoms: _59  and  _61
REMARK   26  A    between atoms: _61  and  _62
REMARK   27  A    between atoms: _65  and  _67
REMARK   28  A    between atoms: _67  and  _68
REMARK   29  A    between atoms: _67  and  _70
REMARK   30  A    between atoms: _70  and  _71
REMARK   31  A    between atoms: _74  and  _76
REMARK   32  A    between atoms: _76  and  _77
REMARK   33  A    between atoms: _76  and  _79
REMARK   34  A    between atoms: _79  and  _80
REMARK   35  A    between atoms: _83  and  _85
REMARK   36  A    between atoms: _85  and  _86
REMARK   37  A    between atoms: _85  and  _88
REMARK   38  A    between atoms: _88  and  _89
REMARK   39  A    between atoms: _92  and  _94
REMARK   40  A    between atoms: _94  and  _95
REMARK   41  A    between atoms: _94  and  _97
REMARK   42  A    between atoms: _100  and  _102
REMARK   43  A    between atoms: _102  and  _103
REMARK   44  A    between atoms: _102  and  _105
REMARK   45  A    between atoms: _106  and  _107
REMARK   46  A    between atoms: _107  and  _108
REMARK   47  A    between atoms: _108  and  _109
REMARK   48  A    between atoms: _113  and  _115
REMARK   49  A    between atoms: _115  and  _116
REMARK   50  A    between atoms: _115  and  _118
REMARK   51  A    between atoms: _118  and  _119
REMARK   52  A    between atoms: _119  and  _120
REMARK   53  A    between atoms: _122  and  _124
REMARK   54  A    between atoms: _124  and  _125
REMARK   55  A    between atoms: _124  and  _127
REMARK   56  A    between atoms: _127  and  _128
REMARK   57  A    between atoms: _131  and  _133
REMARK   58  A    between atoms: _133  and  _134
REMARK   59  A    between atoms: _136  and  _138
REMARK   60  A    between atoms: _138  and  _139
REMARK   61  A    between atoms: _141  and  _143
REMARK   62  A    between atoms: _143  and  _144
REMARK   63  A    between atoms: _143  and  _146
REMARK   64  A    between atoms: _146  and  _147
REMARK   65  A    between atoms: _150  and  _152
REMARK   66  A    between atoms: _152  and  _153
REMARK   67  A    between atoms: _155  and  _157
REMARK   68  A    between atoms: _157  and  _158
REMARK   69  A    between atoms: _160  and  _162
REMARK   70  A    between atoms: _162  and  _163
REMARK   71  A    between atoms: _162  and  _165
REMARK   72  A    between atoms: _165  and  _166
REMARK   73  A    between atoms: _169  and  _171
REMARK   74  A    between atoms: _171  and  _172
REMARK   75  A    between atoms: _171  and  _174
REMARK   76  A    between atoms: _177  and  _179
REMARK   77  A    between atoms: _179  and  _180
REMARK   78  A    between atoms: _179  and  _182
REMARK   79  A    between atoms: _182  and  _183
REMARK   80  A    between atoms: _187  and  _188
REMARK   81  A    between atoms: _193  and  _195
REMARK   82  A    between atoms: _195  and  _196
REMARK   83  A    between atoms: _195  and  _198
REMARK   84  A    between atoms: _198  and  _199
REMARK   85  A    between atoms: _203  and  _204
REMARK   86  A    between atoms: _209  and  _211
REMARK   87  A    between atoms: _211  and  _212
REMARK   88  A    between atoms: _211  and  _214
REMARK   89  A    between atoms: _217  and  _219
REMARK   90  A    between atoms: _219  and  _220
REMARK   91  A    between atoms: _219  and  _222
REMARK   92  A    between atoms: _222  and  _223
REMARK   93  A    between atoms: _228  and  _230
REMARK   94  A    between atoms: _230  and  _231
REMARK   95  A    between atoms: _230  and  _233
REMARK   96  A    between atoms: _233  and  _234
REMARK   97  A    between atoms: _237  and  _239
REMARK   98  A    between atoms: _239  and  _240
REMARK   99  A    between atoms: _239  and  _242
REMARK  100  A    between atoms: _242  and  _243
REMARK  101  A    between atoms: _246  and  _248
REMARK  102  A    between atoms: _248  and  _249
REMARK  103  A    between atoms: _251  and  _253
REMARK  104  A    between atoms: _253  and  _254
REMARK  105  A    between atoms: _253  and  _256
REMARK  106  A    between atoms: _256  and  _257
REMARK  107  A    between atoms: _257  and  _258
REMARK  108  A    between atoms: _258  and  _259
REMARK  109  A    between atoms: _268  and  _270
REMARK  110  A    between atoms: _270  and  _271
REMARK  111  A    between atoms: _270  and  _273
REMARK  112  A    between atoms: _273  and  _274
REMARK  113  A    between atoms: _279  and  _281
REMARK  114  A    between atoms: _281  and  _282
REMARK  115  A    between atoms: _281  and  _284
REMARK  116  A    between atoms: _284  and  _285
REMARK  117  A    between atoms: _285  and  _286
REMARK  118  A    between atoms: _286  and  _287
REMARK  119  A    between atoms: _296  and  _298
REMARK  120  A    between atoms: _298  and  _299
REMARK  121  A    between atoms: _298  and  _301
REMARK  122  A    between atoms: _301  and  _302
REMARK  123  A    between atoms: _305  and  _307
REMARK  124  A    between atoms: _307  and  _308
REMARK  125  A    between atoms: _307  and  _310
REMARK  126  A    between atoms: _310  and  _311
REMARK  127  A    between atoms: _314  and  _316
REMARK  128  A    between atoms: _316  and  _317
REMARK  129  A    between atoms: _316  and  _319
REMARK  130  A    between atoms: _319  and  _320
REMARK  131  A    between atoms: _323  and  _325
REMARK  132  A    between atoms: _325  and  _326
REMARK  133  A    between atoms: _325  and  _328
REMARK  134  A    between atoms: _328  and  _329
REMARK  135  A    between atoms: _332  and  _334
REMARK  136  A    between atoms: _334  and  _335
REMARK  137  A    between atoms: _337  and  _339
REMARK  138  A    between atoms: _339  and  _340
REMARK  139  A    between atoms: _343  and  _345
REMARK  140  A    between atoms: _345  and  _346
REMARK  141  A    between atoms: _345  and  _348
REMARK  142  A    between atoms: _348  and  _349
REMARK  143  A    between atoms: _352  and  _354
REMARK  144  A    between atoms: _354  and  _355
REMARK  145  A    between atoms: _354  and  _357
REMARK  146  A    between atoms: _357  and  _358
REMARK  147  A    between atoms: _361  and  _363
REMARK  148  A    between atoms: _363  and  _364
REMARK  149  A    between atoms: _363  and  _366
REMARK  150  A    between atoms: _366  and  _367
REMARK  151  A    between atoms: _370  and  _372
REMARK  152  A    between atoms: _372  and  _373
REMARK  153  A    between atoms: _372  and  _375
REMARK  154  A    between atoms: _378  and  _380
REMARK  155  A    between atoms: _380  and  _381
REMARK  156  A    between atoms: _380  and  _383
REMARK  157  A    between atoms: _384  and  _385
REMARK  158  A    between atoms: _385  and  _386
REMARK  159  A    between atoms: _386  and  _387
REMARK  160  A    between atoms: _391  and  _393
REMARK  161  A    between atoms: _393  and  _394
REMARK  162  A    between atoms: _393  and  _396
REMARK  163  A    between atoms: _396  and  _397
REMARK  164  A    between atoms: _397  and  _398
REMARK  165  A    between atoms: _400  and  _402
REMARK  166  A    between atoms: _402  and  _403
REMARK  167  A    between atoms: _402  and  _405
REMARK  168  A    between atoms: _405  and  _406
REMARK  169  A    between atoms: _409  and  _411
REMARK  170  A    between atoms: _411  and  _412
REMARK  171  A    between atoms: _414  and  _416
REMARK  172  A    between atoms: _416  and  _417
REMARK  173  A    between atoms: _419  and  _421
REMARK  174  A    between atoms: _421  and  _422
REMARK  175  A    between atoms: _421  and  _424
REMARK  176  A    between atoms: _424  and  _425
REMARK  177  A    between atoms: _428  and  _430
REMARK  178  A    between atoms: _430  and  _431
REMARK  179  A    between atoms: _433  and  _435
REMARK  180  A    between atoms: _435  and  _436
REMARK  181  A    between atoms: _438  and  _440
REMARK  182  A    between atoms: _440  and  _441
REMARK  183  A    between atoms: _440  and  _443
REMARK  184  A    between atoms: _443  and  _444
REMARK  185  A    between atoms: _450  and  _452
REMARK  186  A    between atoms: _452  and  _453
REMARK  187  A    between atoms: _452  and  _455
REMARK  188  A    between atoms: _455  and  _456
REMARK  189  A    between atoms: _459  and  _461
REMARK  190  A    between atoms: _461  and  _462
REMARK  191  A    between atoms: _461  and  _464
REMARK  192  A    between atoms: _467  and  _469
REMARK  193  A    between atoms: _469  and  _470
REMARK  194  A    between atoms: _469  and  _472
REMARK  195  A    between atoms: _472  and  _473
REMARK  196  A    between atoms: _476  and  _478
REMARK  197  A    between atoms: _478  and  _479
REMARK  198  A    between atoms: _478  and  _481
REMARK  199  A    between atoms: _481  and  _482
REMARK  200  A    between atoms: _486  and  _487
REMARK  201  A    between atoms: _492  and  _494
REMARK  202  A    between atoms: _494  and  _495
REMARK  203  A    between atoms: _494  and  _497
REMARK  204  A    between atoms: _500  and  _502
REMARK  205  A    between atoms: _502  and  _503
REMARK  206  A    between atoms: _502  and  _505
REMARK  207  A    between atoms: _505  and  _506
REMARK  208  A    between atoms: _511  and  _513
REMARK  209  A    between atoms: _513  and  _514
REMARK  210  A    between atoms: _513  and  _516
REMARK  211  A    between atoms: _516  and  _517
REMARK  212  A    between atoms: _520  and  _522
REMARK  213  A    between atoms: _522  and  _523
REMARK  214  A    between atoms: _522  and  _525
REMARK  215  A    between atoms: _525  and  _526
REMARK  216  A    between atoms: _529  and  _531
REMARK  217  A    between atoms: _531  and  _532
REMARK  218  A    between atoms: _534  and  _536
REMARK  219  A    between atoms: _536  and  _537
REMARK  220  A    between atoms: _536  and  _539
REMARK  221  A    between atoms: _539  and  _540
REMARK  222  A    between atoms: _540  and  _541
REMARK  223  A    between atoms: _541  and  _542
REMARK  224  A    between atoms: _551  and  _553
REMARK  225  A    between atoms: _553  and  _554
REMARK  226  A    between atoms: _553  and  _556
REMARK  227  A    between atoms: _556  and  _557
REMARK                            x       y       z     vdW  Elec       q    Type
REMARK                         _______ _______ _______ _____ _____    ______ ____
ROOT
ATOM      1  CA  LEU A   1      21.379  30.300   6.525  0.00  0.00    +0.133 C 
ENDROOT
BRANCH   1   2
ATOM      2  N   LEU A   1      20.636  31.491   6.879  0.00  0.00    -0.239 NA
ATOM      3  H   LEU A   1      19.981  31.442   7.686  0.00  0.00    +0.142 HD
ENDBRANCH   1   2
BRANCH   1   4
ATOM      4  C   LEU A   1      20.486  29.410   5.664  0.00  0.00    +0.224 C 
ATOM      5  O   LEU A   1      19.299  29.305   5.918  0.00  0.00    -0.287 OA
ENDBRANCH   1   4
BRANCH   1   6
ATOM      6  CB  LEU A   1      21.786  29.543   7.788  0.00  0.00    +0.025 C 
BRANCH   6   7
ATOM      7  CG  LEU A   1      22.471  30.388   8.857  0.00  0.00    +0.002 C 
ATOM      8  CD2 LEU A   1      22.859  29.519  10.050  0.00  0.00    +0.000 C 
ATOM      9  CD1 LEU A   1      23.688  31.126   8.306  0.00  0.00    +0.000 C 
ENDBRANCH   6   7
ENDBRANCH   1   6
TORSDOF 4
REMARK  Name = ../refined-set-2016/3a2o/3a2o_pocket.pdb
REMARK  227 active torsions:
REMARK  status: ('A' for Active; 'I' for Inactive)
REMARK    1  A    between atoms: _1  and  _3
REMARK    2  A    between atoms: _3  and  _4
REMARK    3  A    between atoms: _3  and  _6
REMARK    4  A    between atoms: _6  and  _7
REMARK    5  A    between atoms: _7  and  _8
REMARK    6  A    between atoms: _8  and  _9
REMARK    7  A    between atoms: _18  and  _20
REMARK    8  A    between atoms: _20  and  _21
REMARK    9  A    between atoms: _20  and  _23
REMARK   10  A    between atoms: _23  and  _24
REMARK   11  A    between atoms: _27  and  _29
REMARK   12  A    between atoms: _29  and  _30
REMARK   13  A    between atoms: _29  and  _32
REMARK   14  A    between atoms: _32  and  _33
REMARK   15  A    between atoms: _36  and  _38
REMARK   16  A    between atoms: _38  and  _39
REMARK   17  A    between atoms: _38  and  _41
REMARK   18  A    between atoms: _41  and  _42
REMARK   19  A    between atoms: _45  and  _47
REMARK   20  A    between atoms: _47  and  _48
REMARK   21  A    between atoms: _47  and  _50
REMARK   22  A    between atoms: _50  and  _51
REMARK   23  A    between atoms: _54  and  _56
REMARK   24  A    between atoms: _56  and  _57
REMARK   25  A    between atoms: _59  and  _61
REMARK   26  A    between atoms: _61  and  _62
REMARK   27  A    between atoms: _65  and  _67
REMARK   28  A    between atoms: _67  and  _68
REMARK   29  A    between atoms: _67  and  _70
REMARK   30  A    between atoms: _70  and  _71
REMARK   31  A    between atoms: _74  and  _76
REMARK   32  A    between atoms: _76  and  _77
REMARK   33  A    between atoms: _76  and  _79
REMARK   34  A    between atoms: _79  and  _80
REMARK   35  A    between atoms: _83  and  _85
REMARK   36  A    between atoms: _85  and  _86
REMARK   37  A    between atoms: _85  and  _88
REMARK   38  A    between atoms: _88  and  _89
REMARK   39  A    between atoms: _92  and  _94
REMARK   40  A    between atoms: _94  and  _95
REMARK   41  A    between atoms: _94  and  _97
REMARK   42  A    between atoms: _100  and  _102
REMARK   43  A    between atoms: _102  and  _103
REMARK   44  A    between atoms: _102  and  _105
REMARK   45  A    between atoms: _106  and  _107
REMARK   46  A    between atoms: _107  and  _108
REMARK   47  A    between atoms: _108  and  _109
REMARK   48  A    between atoms: _113  and  _115
REMARK   49  A    between atoms: _115  and  _116
REMARK   50  A    between atoms: _115  and  _118
REMARK   51  A    between atoms: _118  and  _119
REMARK   52  A    between atoms: _119  and  _120
REMARK   53  A    between atoms: _122  and  _124
REMARK   54  A    between atoms: _124  and  _125
REMARK   55  A    between atoms: _124  and  _127
REMARK   56  A    between atoms: _127  and  _128
REMARK   57  A    between atoms: _131  and  _133
REMARK   58  A    between atoms: _133  and  _134
REMARK   59  A    between atoms: _136  and  _138
REMARK   60  A    between atoms: _138  and  _139
REMARK   61  A    between atoms: _141  and  _143
REMARK   62  A    between atoms: _143  and  _144
REMARK   63  A    between atoms: _143  and  _146
REMARK   64  A    between atoms: _146  and  _147
REMARK   65  A    between atoms: _150  and  _152
REMARK   66  A    between atoms: _152  and  _153
REMARK   67  A    between atoms: _155  and  _157
REMARK   68  A    between atoms: _157  and  _158
REMARK   69  A    between atoms: _160  and  _162
REMARK   70  A    between atoms: _162  and  _163
REMARK   71  A    between atoms: _162  and  _165
REMARK   72  A    between atoms: _165  and  _166
REMARK   73  A    between atoms: _169  and  _171
REMARK   74  A    between atoms: _171  and  _172
REMARK   75  A    between atoms: _171  and  _174
REMARK   76  A    between atoms: _177  and  _179
REMARK   77  A    between atoms: _179  and  _180
REMARK   78  A    between atoms: _179  and  _182
REMARK   79  A    between atoms: _182  and  _183
REMARK   80  A    between atoms: _187  and  _188
REMARK   81  A    between atoms: _193  and  _195
REMARK   82  A    between atoms: _195  and  _196
REMARK   83  A    between atoms: _195  and  _198
REMARK   84  A    between atoms: _198  and  _199
REMARK   85  A    between atoms: _203  and  _204
REMARK   86  A    between atoms: _209  and  _211
REMARK   87  A    between atoms: _211  and  _212
REMARK   88  A    between atoms: _211  and  _214
REMARK   89  A    between atoms: _217  and  _219
REMARK   90  A    between atoms: _219  and  _220
REMARK   91  A    between atoms: _219  and  _222
REMARK   92  A    between atoms: _222  and  _223
REMARK   93  A    between atoms: _228  and  _230
REMARK   94  A    between atoms: _230  and  _231
REMARK   95  A    between atoms: _230  and  _233
REMARK   96  A    between atoms: _233  and  _234
REMARK   97  A    between atoms: _237  and  _239
REMARK   98  A    between atoms: _239  and  _240
REMARK   99  A    between atoms: _239  and  _242
REMARK  100  A    between atoms: _242  and  _243
REMARK  101  A    between atoms: _246  and  _248
REMARK  102  A    between atoms: _248  and  _249
REMARK  103  A    between atoms: _251  and  _253
REMARK  104  A    between atoms: _253  and  _254
REMARK  105  A    between atoms: _253  and  _256
REMARK  106  A    between atoms: _256  and  _257
REMARK  107  A    between atoms: _257  and  _258
REMARK  108  A    between atoms: _258  and  _259
REMARK  109  A    between atoms: _268  and  _270
REMARK  110  A    between atoms: _270  and  _271
REMARK  111  A    between atoms: _270  and  _273
REMARK  112  A    between atoms: _273  and  _274
REMARK  113  A    between atoms: _279  and  _281
REMARK  114  A    between atoms: _281  and  _282
REMARK  115  A    between atoms: _281  and  _284
REMARK  116  A    between atoms: _284  and  _285
REMARK  117  A    between atoms: _285  and  _286
REMARK  118  A    between atoms: _286  and  _287
REMARK  119  A    between atoms: _296  and  _298
REMARK  120  A    between atoms: _298  and  _299
REMARK  121  A    between atoms: _298  and  _301
REMARK  122  A    between atoms: _301  and  _302
REMARK  123  A    between atoms: _305  and  _307
REMARK  124  A    between atoms: _307  and  _308
REMARK  125  A    between atoms: _307  and  _310
REMARK  126  A    between atoms: _310  and  _311
REMARK  127  A    between atoms: _314  and  _316
REMARK  128  A    between atoms: _316  and  _317
REMARK  129  A    between atoms: _316  and  _319
REMARK  130  A    between atoms: _319  and  _320
REMARK  131  A    between atoms: _323  and  _325
REMARK  132  A    between atoms: _325  and  _326
REMARK  133  A    between atoms: _325  and  _328
REMARK  134  A    between atoms: _328  and  _329
REMARK  135  A    between atoms: _332  and  _334
REMARK  136  A    between atoms: _334  and  _335
REMARK  137  A    between atoms: _337  and  _339
REMARK  138  A    between atoms: _339  and  _340
REMARK  139  A    between atoms: _343  and  _345
REMARK  140  A    between atoms: _345  and  _346
REMARK  141  A    between atoms: _345  and  _348
REMARK  142  A    between atoms: _348  and  _349
REMARK  143  A    between atoms: _352  and  _354
REMARK  144  A    between atoms: _354  and  _355
REMARK  145  A    between atoms: _354  and  _357
REMARK  146  A    between atoms: _357  and  _358
REMARK  147  A    between atoms: _361  and  _363
REMARK  148  A    between atoms: _363  and  _364
REMARK  149  A    between atoms: _363  and  _366
REMARK  150  A    between atoms: _366  and  _367
REMARK  151  A    between atoms: _370  and  _372
REMARK  152  A    between atoms: _372  and  _373
REMARK  153  A    between atoms: _372  and  _375
REMARK  154  A    between atoms: _378  and  _380
REMARK  155  A    between atoms: _380  and  _381
REMARK  156  A    between atoms: _380  and  _383
REMARK  157  A    between atoms: _384  and  _385
REMARK  158  A    between atoms: _385  and  _386
REMARK  159  A    between atoms: _386  and  _387
REMARK  160  A    between atoms: _391  and  _393
REMARK  161  A    between atoms: _393  and  _394
REMARK  162  A    between atoms: _393  and  _396
REMARK  163  A    between atoms: _396  and  _397
REMARK  164  A    between atoms: _397  and  _398
REMARK  165  A    between atoms: _400  and  _402
REMARK  166  A    between atoms: _402  and  _403
REMARK  167  A    between atoms: _402  and  _405
REMARK  168  A    between atoms: _405  and  _406
REMARK  169  A    between atoms: _409  and  _411
REMARK  170  A    between atoms: _411  and  _412
REMARK  171  A    between atoms: _414  and  _416
REMARK  172  A    between atoms: _416  and  _417
REMARK  173  A    between atoms: _419  and  _421
REMARK  174  A    between atoms: _421  and  _422
REMARK  175  A    between atoms: _421  and  _424
REMARK  176  A    between atoms: _424  and  _425
REMARK  177  A    between atoms: _428  and  _430
REMARK  178  A    between atoms: _430  and  _431
REMARK  179  A    between atoms: _433  and  _435
REMARK  180  A    between atoms: _435  and  _436
REMARK  181  A    between atoms: _438  and  _440
REMARK  182  A    between atoms: _440  and  _441
REMARK  183  A    between atoms: _440  and  _443
REMARK  184  A    between atoms: _443  and  _444
REMARK  185  A    between atoms: _450  and  _452
REMARK  186  A    between atoms: _452  and  _453
REMARK  187  A    between atoms: _452  and  _455
REMARK  188  A    between atoms: _455  and  _456
REMARK  189  A    between atoms: _459  and  _461
REMARK  190  A    between atoms: _461  and  _462
REMARK  191  A    between atoms: _461  and  _464
REMARK  192  A    between atoms: _467  and  _469
REMARK  193  A    between atoms: _469  and  _470
REMARK  194  A    between atoms: _469  and  _472
REMARK  195  A    between atoms: _472  and  _473
REMARK  196  A    between atoms: _476  and  _478
REMARK  197  A    between atoms: _478  and  _479
REMARK  198  A    between atoms: _478  and  _481
REMARK  199  A    between atoms: _481  and  _482
REMARK  200  A    between atoms: _486  and  _487
REMARK  201  A    between atoms: _492  and  _494
REMARK  202  A    between atoms: _494  and  _495
REMARK  203  A    between atoms: _494  and  _497
REMARK  204  A    between atoms: _500  and  _502
REMARK  205  A    between atoms: _502  and  _503
REMARK  206  A    between atoms: _502  and  _505
REMARK  207  A    between atoms: _505  and  _506
REMARK  208  A    between atoms: _511  and  _513
REMARK  209  A    between atoms: _513  and  _514
REMARK  210  A    between atoms: _513  and  _516
REMARK  211  A    between atoms: _516  and  _517
REMARK  212  A    between atoms: _520  and  _522
REMARK  213  A    between atoms: _522  and  _523
REMARK  214  A    between atoms: _522  and  _525
REMARK  215  A    between atoms: _525  and  _526
REMARK  216  A    between atoms: _529  and  _531
REMARK  217  A    between atoms: _531  and  _532
REMARK  218  A    between atoms: _534  and  _536
REMARK  219  A    between atoms: _536  and  _537
REMARK  220  A    between atoms: _536  and  _539
REMARK  221  A    between atoms: _539  and  _540
REMARK  222  A    between atoms: _540  and  _541
REMARK  223  A    between atoms: _541  and  _542
REMARK  224  A    between atoms: _551  and  _553
REMARK  225  A    between atoms: _553  and  _554
REMARK  226  A    between atoms: _553  and  _556
REMARK  227  A    between atoms: _556  and  _557
REMARK                            x       y       z     vdW  Elec       q    Type
REMARK                         _______ _______ _______ _____ _____    ______ ____
ROOT
ATOM      1  CA  ILE A   6      13.417  27.976  11.386  0.00  0.00    +0.149 C 
ENDROOT
BRANCH   1   2
ATOM      2  C   ILE A   6      13.718  29.459  11.372  0.00  0.00    +0.241 C 
ATOM      3  N   ILE A   7      12.909  30.250  12.107  0.00  0.00    -0.297 N 
ATOM      4  H   ILE A   7      12.032  29.843  12.491  0.00  0.00    +0.150 HD
ATOM      5  O   ILE A   6      14.704  29.895  10.767  0.00  0.00    -0.273 OA
BRANCH   3   6
ATOM      6  CA  ILE A   7      13.204  31.632  12.384  0.00  0.00    +0.149 C 
BRANCH   6   7
ATOM      7  C   ILE A   7      13.838  31.685  13.779  0.00  0.00    +0.241 C 
ATOM      8  O   ILE A   7      13.184  31.364  14.772  0.00  0.00    -0.273 OA
ATOM      9  N   GLY A   8      15.125  32.031  13.817  0.00  0.00    -0.295 N 
ATOM     10  H   GLY A   8      15.612  32.281  12.933  0.00  0.00    +0.150 HD
BRANCH   9  11
ATOM     11  CA  GLY A   8      15.854  32.065  15.058  0.00  0.00    +0.176 C 
BRANCH  11  12
ATOM     12  C   GLY A   8      15.960  33.459  15.631  0.00  0.00    +0.243 C 
ATOM     13  N   ARG A   9      16.693  33.561  16.742  0.00  0.00    -0.297 N 
ATOM     14  H   ARG A   9      17.282  32.759  17.043  0.00  0.00    +0.150 HD
ATOM     15  O   GLY A   8      15.389  34.443  15.127  0.00  0.00    -0.273 OA
BRANCH  13  16
ATOM     16  CA  ARG A   9      16.679  34.778  17.536  0.00  0.00    +0.149 C 
BRANCH  16  17
ATOM     17  C   ARG A   9      17.178  35.987  16.768  0.00  0.00    +0.241 C 
ATOM     18  O   ARG A   9      16.745  37.114  17.037  0.00  0.00    -0.273 OA
ATOM     19  N   ASN A  10      18.097  35.786  15.825  0.00  0.00    -0.298 N 
ATOM     20  H   ASN A  10      18.426  34.823  15.609  0.00  0.00    +0.150 HD
BRANCH  19  21
ATOM     21  CA  ASN A  10      18.638  36.930  15.097  0.00  0.00    +0.146 C 
BRANCH  21  22
ATOM     22  C   ASN A  10      17.559  37.731  14.370  0.00  0.00    +0.227 C 
ATOM     23  O   ASN A  10      17.745  38.926  14.139  0.00  0.00    -0.286 OA
ENDBRANCH  21  22
BRANCH  21  24
ATOM     24  CB  ASN A  10      19.715  36.489  14.101  0.00  0.00    +0.112 C 
BRANCH  24  25
ATOM     25  CG  ASN A  10      19.152  35.770  12.891  0.00  0.00    +0.222 C 
ATOM     26  OD1 ASN A  10      18.448  34.778  13.022  0.00  0.00    -0.275 OA
ATOM     27  ND2 ASN A  10      19.469  36.314  11.716  0.00  0.00    -0.329 N 
ATOM     28 HD21 ASN A  10      20.074  37.159  11.681  0.00  0.00    +0.145 HD
ATOM     29 HD22 ASN A  10      19.112  35.893  10.835  0.00  0.00    +0.145 HD
ENDBRANCH  24  25
ENDBRANCH  21  24
ENDBRANCH  19  21
ENDBRANCH  16  17
BRANCH  16  30
ATOM     30  CB  ARG A   9      17.504  34.613  18.814  0.00  0.00    +0.033 C 
BRANCH  30  31
ATOM     31  CG  ARG A   9      16.883  33.618  19.781  0.00  0.00    +0.045 C 
BRANCH  31  32
ATOM     32  CD  ARG A   9      17.603  33.603  21.139  0.00  0.00    +0.174 C 
BRANCH  32  33
ATOM     33  NE  ARG A   9      18.982  33.186  21.030  0.00  0.00    -0.265 N 
ATOM     34  HE  ARG A   9      19.149  32.160  21.024  0.00  0.00    +0.259 HD
ATOM     35  CZ  ARG A   9      20.057  33.950  20.937  0.00  0.00    +0.342 C 
ATOM     36  NH2 ARG A   9      19.983  35.293  21.059  0.00  0.00    -0.292 N 
ATOM     37 HH21 ARG A   9      19.065  35.750  21.230  0.00  0.00    +0.255 HD
ATOM     38 HH22 ARG A   9      20.844  35.870  20.982  0.00  0.00    +0.255 HD
ATOM     39  NH1 ARG A   9      21.235  33.411  20.736  0.00  0.00    -0.292 N 
ATOM     40 HH11 ARG A   9      22.078  34.016  20.663  0.00  0.00    +0.255 HD
ATOM     41 HH12 ARG A   9      21.327  32.379  20.649  0.00  0.00    +0.255 HD
ENDBRANCH  32  33
ENDBRANCH  31  32
ENDBRANCH  30  31
ENDBRANCH  16  30
ENDBRANCH  13  16
ENDBRANCH  11  12
ENDBRANCH   9  11
ENDBRANCH   6   7
BRANCH   6  42
ATOM     42  CB  ILE A   7      11.967  32.531  12.349  0.00  0.00    +0.027 C 
ATOM     43  CG2 ILE A   7      12.359  33.966  12.610  0.00  0.00    +0.002 C 
BRANCH  42  44
ATOM     44  CG1 ILE A   7      11.196  32.382  11.033  0.00  0.00    +0.002 C 
ATOM     45  CD1 ILE A   7      12.023  32.578   9.787  0.00  0.00    +0.000 C 
ENDBRANCH  42  44
ENDBRANCH   6  42
ENDBRANCH   3   6
ENDBRANCH   1   2
BRANCH   1  48
ATOM     46  C   ASN A   5      12.245  26.796   9.596  0.00  0.00    +0.241 C 
ATOM     47  O   ASN A   5      11.178  26.663  10.199  0.00  0.00    -0.273 OA
ATOM     48  N   ILE A   6      13.295  27.462  10.020  0.00  0.00    -0.297 N 
ATOM     49  H   ILE A   6      14.076  27.632   9.355  0.00  0.00    +0.150 HD
BRANCH  46  50
ATOM     50  CA  ASN A   5      12.385  26.156   8.202  0.00  0.00    +0.158 C 
BRANCH  50  53
ATOM     51  C   VAL A   4      12.732  23.872   8.933  0.00  0.00    +0.241 C 
ATOM     52  O   VAL A   4      13.882  24.133   9.284  0.00  0.00    -0.273 OA
ATOM     53  N   ASN A   5      11.968  24.763   8.294  0.00  0.00    -0.297 N 
ATOM     54  H   ASN A   5      11.072  24.461   7.861  0.00  0.00    +0.150 HD
BRANCH  51  55
ATOM     55  CA  VAL A   4      12.158  22.471   9.261  0.00  0.00    +0.149 C 
BRANCH  55  57
ATOM     56  C   PRO A   3      13.166  20.330   8.335  0.00  0.00    +0.241 C 
ATOM     57  N   VAL A   4      13.204  21.510   8.951  0.00  0.00    -0.297 N 
ATOM     58  H   VAL A   4      14.153  21.796   9.267  0.00  0.00    +0.150 HD
ATOM     59  O   PRO A   3      12.085  19.917   7.866  0.00  0.00    -0.273 OA
BRANCH  56  65
ATOM     60  C   THR A   2      16.037  20.970   7.494  0.00  0.00    +0.246 C 
ATOM     61  N   PRO A   3      15.632  20.166   8.466  0.00  0.00    -0.272 N 
ATOM     62  CD  PRO A   3      16.385  19.762   9.670  0.00  0.00    +0.094 C 
ATOM     63  CG  PRO A   3      15.715  18.590  10.121  0.00  0.00    +0.024 C 
ATOM     64  CB  PRO A   3      14.364  18.484   9.537  0.00  0.00    +0.031 C 
ATOM     65  CA  PRO A   3      14.361  19.441   8.323  0.00  0.00    +0.152 C 
ATOM     66  O   THR A   2      15.332  21.129   6.475  0.00  0.00    -0.273 OA
BRANCH  60  67
ATOM     67  CA  THR A   2      17.331  21.769   7.636  0.00  0.00    +0.176 C 
BRANCH  67  70
ATOM     68  C   PRO A   1      18.741  20.704   5.974  0.00  0.00    +0.239 C 
ATOM     69  O   PRO A   1      18.812  19.681   6.670  0.00  0.00    -0.274 OA
ATOM     70  N   THR A   2      18.072  21.765   6.393  0.00  0.00    -0.295 N 
ATOM     71  H   THR A   2      18.079  22.626   5.809  0.00  0.00    +0.150 HD
BRANCH  68  73
ATOM     72  N   PRO A   1      20.220  21.952   4.436  0.00  0.00    -0.210 NA
ATOM     73  CA  PRO A   1      19.330  20.805   4.584  0.00  0.00    +0.149 C 
ATOM     74  CB  PRO A   1      20.254  19.620   4.215  0.00  0.00    +0.028 C 
ATOM     75  CG  PRO A   1      21.582  20.077   4.755  0.00  0.00    +0.021 C 
ATOM     76  CD  PRO A   1      21.649  21.557   4.392  0.00  0.00    +0.089 C 
ENDBRANCH  68  73
ENDBRANCH  67  70
BRANCH  67  77
ATOM     77  CB  THR A   2      17.034  23.168   8.131  0.00  0.00    +0.137 C 
ATOM     78  CG2 THR A   2      16.316  24.057   7.166  0.00  0.00    +0.034 C 
BRANCH  77  79
ATOM     79  OG1 THR A   2      16.330  23.026   9.363  0.00  0.00    -0.382 OA
ATOM     80  HG1 THR A   2      15.492  22.522   9.207  0.00  0.00    +0.210 HD
ENDBRANCH  77  79
ENDBRANCH  67  77
ENDBRANCH  60  67
ENDBRANCH  56  65
ENDBRANCH  55  57
BRANCH  55  81
ATOM     81  CB  VAL A   4      11.653  22.434  10.726  0.00  0.00    +0.027 C 
ATOM     82  CG2 VAL A   4      10.578  23.462  11.059  0.00  0.00    +0.002 C 
ATOM     83  CG1 VAL A   4      11.175  21.020  11.039  0.00  0.00    +0.002 C 
ENDBRANCH  55  81
ENDBRANCH  51  55
ENDBRANCH  50  53
BRANCH  50  84
ATOM     84  CB  ASN A   5      11.490  26.905   7.222  0.00  0.00    +0.114 C 
BRANCH  84  85
ATOM     85  CG  ASN A   5      11.589  26.386   5.803  0.00  0.00    +0.222 C 
ATOM     86  OD1 ASN A   5      12.661  25.993   5.354  0.00  0.00    -0.275 OA
ATOM     87  ND2 ASN A   5      10.491  26.422   5.097  0.00  0.00    -0.329 N 
ATOM     88 HD21 ASN A   5       9.608  26.764   5.526  0.00  0.00    +0.145 HD
ATOM     89 HD22 ASN A   5      10.500  26.108   4.105  0.00  0.00    +0.145 HD
ENDBRANCH  84  85
ENDBRANCH  50  84
ENDBRANCH  46  50
ENDBRANCH   1  48
BRANCH   1  90
ATOM     90  CB  ILE A   6      14.536  27.182  12.121  0.00  0.00    +0.027 C 
ATOM     91  CG2 ILE A   6      14.976  27.889  13.363  0.00  0.00    +0.002 C 
BRANCH  90  92
ATOM     92  CG1 ILE A   6      14.069  25.748  12.362  0.00  0.00    +0.002 C 
ATOM     93  CD1 ILE A   6      15.143  24.804  12.759  0.00  0.00    +0.000 C 
ENDBRANCH  90  92
ENDBRANCH   1  90
TORSDOF 33
REMARK  Name = ../refined-set-2016/3a2o/3a2o_pocket.pdb
REMARK  227 active torsions:
REMARK  status: ('A' for Active; 'I' for Inactive)
REMARK    1  A    between atoms: _1  and  _3
REMARK    2  A    between atoms: _3  and  _4
REMARK    3  A    between atoms: _3  and  _6
REMARK    4  A    between atoms: _6  and  _7
REMARK    5  A    between atoms: _7  and  _8
REMARK    6  A    between atoms: _8  and  _9
REMARK    7  A    between atoms: _18  and  _20
REMARK    8  A    between atoms: _20  and  _21
REMARK    9  A    between atoms: _20  and  _23
REMARK   10  A    between atoms: _23  and  _24
REMARK   11  A    between atoms: _27  and  _29
REMARK   12  A    between atoms: _29  and  _30
REMARK   13  A    between atoms: _29  and  _32
REMARK   14  A    between atoms: _32  and  _33
REMARK   15  A    between atoms: _36  and  _38
REMARK   16  A    between atoms: _38  and  _39
REMARK   17  A    between atoms: _38  and  _41
REMARK   18  A    between atoms: _41  and  _42
REMARK   19  A    between atoms: _45  and  _47
REMARK   20  A    between atoms: _47  and  _48
REMARK   21  A    between atoms: _47  and  _50
REMARK   22  A    between atoms: _50  and  _51
REMARK   23  A    between atoms: _54  and  _56
REMARK   24  A    between atoms: _56  and  _57
REMARK   25  A    between atoms: _59  and  _61
REMARK   26  A    between atoms: _61  and  _62
REMARK   27  A    between atoms: _65  and  _67
REMARK   28  A    between atoms: _67  and  _68
REMARK   29  A    between atoms: _67  and  _70
REMARK   30  A    between atoms: _70  and  _71
REMARK   31  A    between atoms: _74  and  _76
REMARK   32  A    between atoms: _76  and  _77
REMARK   33  A    between atoms: _76  and  _79
REMARK   34  A    between atoms: _79  and  _80
REMARK   35  A    between atoms: _83  and  _85
REMARK   36  A    between atoms: _85  and  _86
REMARK   37  A    between atoms: _85  and  _88
REMARK   38  A    between atoms: _88  and  _89
REMARK   39  A    between atoms: _92  and  _94
REMARK   40  A    between atoms: _94  and  _95
REMARK   41  A    between atoms: _94  and  _97
REMARK   42  A    between atoms: _100  and  _102
REMARK   43  A    between atoms: _102  and  _103
REMARK   44  A    between atoms: _102  and  _105
REMARK   45  A    between atoms: _106  and  _107
REMARK   46  A    between atoms: _107  and  _108
REMARK   47  A    between atoms: _108  and  _109
REMARK   48  A    between atoms: _113  and  _115
REMARK   49  A    between atoms: _115  and  _116
REMARK   50  A    between atoms: _115  and  _118
REMARK   51  A    between atoms: _118  and  _119
REMARK   52  A    between atoms: _119  and  _120
REMARK   53  A    between atoms: _122  and  _124
REMARK   54  A    between atoms: _124  and  _125
REMARK   55  A    between atoms: _124  and  _127
REMARK   56  A    between atoms: _127  and  _128
REMARK   57  A    between atoms: _131  and  _133
REMARK   58  A    between atoms: _133  and  _134
REMARK   59  A    between atoms: _136  and  _138
REMARK   60  A    between atoms: _138  and  _139
REMARK   61  A    between atoms: _141  and  _143
REMARK   62  A    between atoms: _143  and  _144
REMARK   63  A    between atoms: _143  and  _146
REMARK   64  A    between atoms: _146  and  _147
REMARK   65  A    between atoms: _150  and  _152
REMARK   66  A    between atoms: _152  and  _153
REMARK   67  A    between atoms: _155  and  _157
REMARK   68  A    between atoms: _157  and  _158
REMARK   69  A    between atoms: _160  and  _162
REMARK   70  A    between atoms: _162  and  _163
REMARK   71  A    between atoms: _162  and  _165
REMARK   72  A    between atoms: _165  and  _166
REMARK   73  A    between atoms: _169  and  _171
REMARK   74  A    between atoms: _171  and  _172
REMARK   75  A    between atoms: _171  and  _174
REMARK   76  A    between atoms: _177  and  _179
REMARK   77  A    between atoms: _179  and  _180
REMARK   78  A    between atoms: _179  and  _182
REMARK   79  A    between atoms: _182  and  _183
REMARK   80  A    between atoms: _187  and  _188
REMARK   81  A    between atoms: _193  and  _195
REMARK   82  A    between atoms: _195  and  _196
REMARK   83  A    between atoms: _195  and  _198
REMARK   84  A    between atoms: _198  and  _199
REMARK   85  A    between atoms: _203  and  _204
REMARK   86  A    between atoms: _209  and  _211
REMARK   87  A    between atoms: _211  and  _212
REMARK   88  A    between atoms: _211  and  _214
REMARK   89  A    between atoms: _217  and  _219
REMARK   90  A    between atoms: _219  and  _220
REMARK   91  A    between atoms: _219  and  _222
REMARK   92  A    between atoms: _222  and  _223
REMARK   93  A    between atoms: _228  and  _230
REMARK   94  A    between atoms: _230  and  _231
REMARK   95  A    between atoms: _230  and  _233
REMARK   96  A    between atoms: _233  and  _234
REMARK   97  A    between atoms: _237  and  _239
REMARK   98  A    between atoms: _239  and  _240
REMARK   99  A    between atoms: _239  and  _242
REMARK  100  A    between atoms: _242  and  _243
REMARK  101  A    between atoms: _246  and  _248
REMARK  102  A    between atoms: _248  and  _249
REMARK  103  A    between atoms: _251  and  _253
REMARK  104  A    between atoms: _253  and  _254
REMARK  105  A    between atoms: _253  and  _256
REMARK  106  A    between atoms: _256  and  _257
REMARK  107  A    between atoms: _257  and  _258
REMARK  108  A    between atoms: _258  and  _259
REMARK  109  A    between atoms: _268  and  _270
REMARK  110  A    between atoms: _270  and  _271
REMARK  111  A    between atoms: _270  and  _273
REMARK  112  A    between atoms: _273  and  _274
REMARK  113  A    between atoms: _279  and  _281
REMARK  114  A    between atoms: _281  and  _282
REMARK  115  A    between atoms: _281  and  _284
REMARK  116  A    between atoms: _284  and  _285
REMARK  117  A    between atoms: _285  and  _286
REMARK  118  A    between atoms: _286  and  _287
REMARK  119  A    between atoms: _296  and  _298
REMARK  120  A    between atoms: _298  and  _299
REMARK  121  A    between atoms: _298  and  _301
REMARK  122  A    between atoms: _301  and  _302
REMARK  123  A    between atoms: _305  and  _307
REMARK  124  A    between atoms: _307  and  _308
REMARK  125  A    between atoms: _307  and  _310
REMARK  126  A    between atoms: _310  and  _311
REMARK  127  A    between atoms: _314  and  _316
REMARK  128  A    between atoms: _316  and  _317
REMARK  129  A    between atoms: _316  and  _319
REMARK  130  A    between atoms: _319  and  _320
REMARK  131  A    between atoms: _323  and  _325
REMARK  132  A    between atoms: _325  and  _326
REMARK  133  A    between atoms: _325  and  _328
REMARK  134  A    between atoms: _328  and  _329
REMARK  135  A    between atoms: _332  and  _334
REMARK  136  A    between atoms: _334  and  _335
REMARK  137  A    between atoms: _337  and  _339
REMARK  138  A    between atoms: _339  and  _340
REMARK  139  A    between atoms: _343  and  _345
REMARK  140  A    between atoms: _345  and  _346
REMARK  141  A    between atoms: _345  and  _348
REMARK  142  A    between atoms: _348  and  _349
REMARK  143  A    between atoms: _352  and  _354
REMARK  144  A    between atoms: _354  and  _355
REMARK  145  A    between atoms: _354  and  _357
REMARK  146  A    between atoms: _357  and  _358
REMARK  147  A    between atoms: _361  and  _363
REMARK  148  A    between atoms: _363  and  _364
REMARK  149  A    between atoms: _363  and  _366
REMARK  150  A    between atoms: _366  and  _367
REMARK  151  A    between atoms: _370  and  _372
REMARK  152  A    between atoms: _372  and  _373
REMARK  153  A    between atoms: _372  and  _375
REMARK  154  A    between atoms: _378  and  _380
REMARK  155  A    between atoms: _380  and  _381
REMARK  156  A    between atoms: _380  and  _383
REMARK  157  A    between atoms: _384  and  _385
REMARK  158  A    between atoms: _385  and  _386
REMARK  159  A    between atoms: _386  and  _387
REMARK  160  A    between atoms: _391  and  _393
REMARK  161  A    between atoms: _393  and  _394
REMARK  162  A    between atoms: _393  and  _396
REMARK  163  A    between atoms: _396  and  _397
REMARK  164  A    between atoms: _397  and  _398
REMARK  165  A    between atoms: _400  and  _402
REMARK  166  A    between atoms: _402  and  _403
REMARK  167  A    between atoms: _402  and  _405
REMARK  168  A    between atoms: _405  and  _406
REMARK  169  A    between atoms: _409  and  _411
REMARK  170  A    between atoms: _411  and  _412
REMARK  171  A    between atoms: _414  and  _416
REMARK  172  A    between atoms: _416  and  _417
REMARK  173  A    between atoms: _419  and  _421
REMARK  174  A    between atoms: _421  and  _422
REMARK  175  A    between atoms: _421  and  _424
REMARK  176  A    between atoms: _424  and  _425
REMARK  177  A    between atoms: _428  and  _430
REMARK  178  A    between atoms: _430  and  _431
REMARK  179  A    between atoms: _433  and  _435
REMARK  180  A    between atoms: _435  and  _436
REMARK  181  A    between atoms: _438  and  _440
REMARK  182  A    between atoms: _440  and  _441
REMARK  183  A    between atoms: _440  and  _443
REMARK  184  A    between atoms: _443  and  _444
REMARK  185  A    between atoms: _450  and  _452
REMARK  186  A    between atoms: _452  and  _453
REMARK  187  A    between atoms: _452  and  _455
REMARK  188  A    between atoms: _455  and  _456
REMARK  189  A    between atoms: _459  and  _461
REMARK  190  A    between atoms: _461  and  _462
REMARK  191  A    between atoms: _461  and  _464
REMARK  192  A    between atoms: _467  and  _469
REMARK  193  A    between atoms: _469  and  _470
REMARK  194  A    between atoms: _469  and  _472
REMARK  195  A    between atoms: _472  and  _473
REMARK  196  A    between atoms: _476  and  _478
REMARK  197  A    between atoms: _478  and  _479
REMARK  198  A    between atoms: _478  and  _481
REMARK  199  A    between atoms: _481  and  _482
REMARK  200  A    between atoms: _486  and  _487
REMARK  201  A    between atoms: _492  and  _494
REMARK  202  A    between atoms: _494  and  _495
REMARK  203  A    between atoms: _494  and  _497
REMARK  204  A    between atoms: _500  and  _502
REMARK  205  A    between atoms: _502  and  _503
REMARK  206  A    between atoms: _502  and  _505
REMARK  207  A    between atoms: _505  and  _506
REMARK  208  A    between atoms: _511  and  _513
REMARK  209  A    between atoms: _513  and  _514
REMARK  210  A    between atoms: _513  and  _516
REMARK  211  A    between atoms: _516  and  _517
REMARK  212  A    between atoms: _520  and  _522
REMARK  213  A    between atoms: _522  and  _523
REMARK  214  A    between atoms: _522  and  _525
REMARK  215  A    between atoms: _525  and  _526
REMARK  216  A    between atoms: _529  and  _531
REMARK  217  A    between atoms: _531  and  _532
REMARK  218  A    between atoms: _534  and  _536
REMARK  219  A    between atoms: _536  and  _537
REMARK  220  A    between atoms: _536  and  _539
REMARK  221  A    between atoms: _539  and  _540
REMARK  222  A    between atoms: _540  and  _541
REMARK  223  A    between atoms: _541  and  _542
REMARK  224  A    between atoms: _551  and  _553
REMARK  225  A    between atoms: _553  and  _554
REMARK  226  A    between atoms: _553  and  _556
REMARK  227  A    between atoms: _556  and  _557
REMARK                            x       y       z     vdW  Elec       q    Type
REMARK                         _______ _______ _______ _____ _____    ______ ____
ROOT
ATOM      1  NE  ARG A   1      23.233  30.136  22.567  0.00  0.00    -0.265 N 
ATOM      2  CZ  ARG A   1      24.444  29.612  22.518  0.00  0.00    +0.342 C 
ATOM      3  NH2 ARG A   1      25.097  29.211  23.612  0.00  0.00    -0.292 N 
ATOM      4 HH21 ARG A   1      24.652  29.306  24.547  0.00  0.00    +0.255 HD
ATOM      5 HH22 ARG A   1      26.050  28.803  23.529  0.00  0.00    +0.255 HD
ATOM      6  NH1 ARG A   1      24.963  29.463  21.319  0.00  0.00    -0.292 N 
ATOM      7 HH11 ARG A   1      25.914  29.056  21.211  0.00  0.00    +0.255 HD
ATOM      8 HH12 ARG A   1      24.423  29.752  20.479  0.00  0.00    +0.255 HD
ATOM      9  HE  ARG A   1      22.787  30.411  21.669  0.00  0.00    +0.259 HD
ENDROOT
BRANCH   1  10
ATOM     10  CD  ARG A   1      22.482  30.354  23.789  0.00  0.00    +0.174 C 
BRANCH  10  11
ATOM     11  CG  ARG A   1      21.502  31.447  23.579  0.00  0.00    +0.045 C 
BRANCH  11  12
ATOM     12  CB  ARG A   1      20.719  31.766  24.841  0.00  0.00    +0.029 C 
BRANCH  12  13
ATOM     13  CA  ARG A   1      19.768  32.924  24.651  0.00  0.00    +0.133 C 
BRANCH  13  14
ATOM     14  N   ARG A   1      20.492  34.178  24.501  0.00  0.00    -0.239 NA
ATOM     15  H   ARG A   1      21.532  34.180  24.519  0.00  0.00    +0.142 HD
ENDBRANCH  13  14
BRANCH  13  16
ATOM     16  C   ARG A   1      18.853  33.022  25.876  0.00  0.00    +0.224 C 
ATOM     17  O   ARG A   1      19.304  33.481  26.945  0.00  0.00    -0.287 OA
ENDBRANCH  13  16
ENDBRANCH  12  13
ENDBRANCH  11  12
ENDBRANCH  10  11
ENDBRANCH   1  10
TORSDOF 6
REMARK  Name = ../refined-set-2016/3a2o/3a2o_pocket.pdb
REMARK  227 active torsions:
REMARK  status: ('A' for Active; 'I' for Inactive)
REMARK    1  A    between atoms: _1  and  _3
REMARK    2  A    between atoms: _3  and  _4
REMARK    3  A    between atoms: _3  and  _6
REMARK    4  A    between atoms: _6  and  _7
REMARK    5  A    between atoms: _7  and  _8
REMARK    6  A    between atoms: _8  and  _9
REMARK    7  A    between atoms: _18  and  _20
REMARK    8  A    between atoms: _20  and  _21
REMARK    9  A    between atoms: _20  and  _23
REMARK   10  A    between atoms: _23  and  _24
REMARK   11  A    between atoms: _27  and  _29
REMARK   12  A    between atoms: _29  and  _30
REMARK   13  A    between atoms: _29  and  _32
REMARK   14  A    between atoms: _32  and  _33
REMARK   15  A    between atoms: _36  and  _38
REMARK   16  A    between atoms: _38  and  _39
REMARK   17  A    between atoms: _38  and  _41
REMARK   18  A    between atoms: _41  and  _42
REMARK   19  A    between atoms: _45  and  _47
REMARK   20  A    between atoms: _47  and  _48
REMARK   21  A    between atoms: _47  and  _50
REMARK   22  A    between atoms: _50  and  _51
REMARK   23  A    between atoms: _54  and  _56
REMARK   24  A    between atoms: _56  and  _57
REMARK   25  A    between atoms: _59  and  _61
REMARK   26  A    between atoms: _61  and  _62
REMARK   27  A    between atoms: _65  and  _67
REMARK   28  A    between atoms: _67  and  _68
REMARK   29  A    between atoms: _67  and  _70
REMARK   30  A    between atoms: _70  and  _71
REMARK   31  A    between atoms: _74  and  _76
REMARK   32  A    between atoms: _76  and  _77
REMARK   33  A    between atoms: _76  and  _79
REMARK   34  A    between atoms: _79  and  _80
REMARK   35  A    between atoms: _83  and  _85
REMARK   36  A    between atoms: _85  and  _86
REMARK   37  A    between atoms: _85  and  _88
REMARK   38  A    between atoms: _88  and  _89
REMARK   39  A    between atoms: _92  and  _94
REMARK   40  A    between atoms: _94  and  _95
REMARK   41  A    between atoms: _94  and  _97
REMARK   42  A    between atoms: _100  and  _102
REMARK   43  A    between atoms: _102  and  _103
REMARK   44  A    between atoms: _102  and  _105
REMARK   45  A    between atoms: _106  and  _107
REMARK   46  A    between atoms: _107  and  _108
REMARK   47  A    between atoms: _108  and  _109
REMARK   48  A    between atoms: _113  and  _115
REMARK   49  A    between atoms: _115  and  _116
REMARK   50  A    between atoms: _115  and  _118
REMARK   51  A    between atoms: _118  and  _119
REMARK   52  A    between atoms: _119  and  _120
REMARK   53  A    between atoms: _122  and  _124
REMARK   54  A    between atoms: _124  and  _125
REMARK   55  A    between atoms: _124  and  _127
REMARK   56  A    between atoms: _127  and  _128
REMARK   57  A    between atoms: _131  and  _133
REMARK   58  A    between atoms: _133  and  _134
REMARK   59  A    between atoms: _136  and  _138
REMARK   60  A    between atoms: _138  and  _139
REMARK   61  A    between atoms: _141  and  _143
REMARK   62  A    between atoms: _143  and  _144
REMARK   63  A    between atoms: _143  and  _146
REMARK   64  A    between atoms: _146  and  _147
REMARK   65  A    between atoms: _150  and  _152
REMARK   66  A    between atoms: _152  and  _153
REMARK   67  A    between atoms: _155  and  _157
REMARK   68  A    between atoms: _157  and  _158
REMARK   69  A    between atoms: _160  and  _162
REMARK   70  A    between atoms: _162  and  _163
REMARK   71  A    between atoms: _162  and  _165
REMARK   72  A    between atoms: _165  and  _166
REMARK   73  A    between atoms: _169  and  _171
REMARK   74  A    between atoms: _171  and  _172
REMARK   75  A    between atoms: _171  and  _174
REMARK   76  A    between atoms: _177  and  _179
REMARK   77  A    between atoms: _179  and  _180
REMARK   78  A    between atoms: _179  and  _182
REMARK   79  A    between atoms: _182  and  _183
REMARK   80  A    between atoms: _187  and  _188
REMARK   81  A    between atoms: _193  and  _195
REMARK   82  A    between atoms: _195  and  _196
REMARK   83  A    between atoms: _195  and  _198
REMARK   84  A    between atoms: _198  and  _199
REMARK   85  A    between atoms: _203  and  _204
REMARK   86  A    between atoms: _209  and  _211
REMARK   87  A    between atoms: _211  and  _212
REMARK   88  A    between atoms: _211  and  _214
REMARK   89  A    between atoms: _217  and  _219
REMARK   90  A    between atoms: _219  and  _220
REMARK   91  A    between atoms: _219  and  _222
REMARK   92  A    between atoms: _222  and  _223
REMARK   93  A    between atoms: _228  and  _230
REMARK   94  A    between atoms: _230  and  _231
REMARK   95  A    between atoms: _230  and  _233
REMARK   96  A    between atoms: _233  and  _234
REMARK   97  A    between atoms: _237  and  _239
REMARK   98  A    between atoms: _239  and  _240
REMARK   99  A    between atoms: _239  and  _242
REMARK  100  A    between atoms: _242  and  _243
REMARK  101  A    between atoms: _246  and  _248
REMARK  102  A    between atoms: _248  and  _249
REMARK  103  A    between atoms: _251  and  _253
REMARK  104  A    between atoms: _253  and  _254
REMARK  105  A    between atoms: _253  and  _256
REMARK  106  A    between atoms: _256  and  _257
REMARK  107  A    between atoms: _257  and  _258
REMARK  108  A    between atoms: _258  and  _259
REMARK  109  A    between atoms: _268  and  _270
REMARK  110  A    between atoms: _270  and  _271
REMARK  111  A    between atoms: _270  and  _273
REMARK  112  A    between atoms: _273  and  _274
REMARK  113  A    between atoms: _279  and  _281
REMARK  114  A    between atoms: _281  and  _282
REMARK  115  A    between atoms: _281  and  _284
REMARK  116  A    between atoms: _284  and  _285
REMARK  117  A    between atoms: _285  and  _286
REMARK  118  A    between atoms: _286  and  _287
REMARK  119  A    between atoms: _296  and  _298
REMARK  120  A    between atoms: _298  and  _299
REMARK  121  A    between atoms: _298  and  _301
REMARK  122  A    between atoms: _301  and  _302
REMARK  123  A    between atoms: _305  and  _307
REMARK  124  A    between atoms: _307  and  _308
REMARK  125  A    between atoms: _307  and  _310
REMARK  126  A    between atoms: _310  and  _311
REMARK  127  A    between atoms: _314  and  _316
REMARK  128  A    between atoms: _316  and  _317
REMARK  129  A    between atoms: _316  and  _319
REMARK  130  A    between atoms: _319  and  _320
REMARK  131  A    between atoms: _323  and  _325
REMARK  132  A    between atoms: _325  and  _326
REMARK  133  A    between atoms: _325  and  _328
REMARK  134  A    between atoms: _328  and  _329
REMARK  135  A    between atoms: _332  and  _334
REMARK  136  A    between atoms: _334  and  _335
REMARK  137  A    between atoms: _337  and  _339
REMARK  138  A    between atoms: _339  and  _340
REMARK  139  A    between atoms: _343  and  _345
REMARK  140  A    between atoms: _345  and  _346
REMARK  141  A    between atoms: _345  and  _348
REMARK  142  A    between atoms: _348  and  _349
REMARK  143  A    between atoms: _352  and  _354
REMARK  144  A    between atoms: _354  and  _355
REMARK  145  A    between atoms: _354  and  _357
REMARK  146  A    between atoms: _357  and  _358
REMARK  147  A    between atoms: _361  and  _363
REMARK  148  A    between atoms: _363  and  _364
REMARK  149  A    between atoms: _363  and  _366
REMARK  150  A    between atoms: _366  and  _367
REMARK  151  A    between atoms: _370  and  _372
REMARK  152  A    between atoms: _372  and  _373
REMARK  153  A    between atoms: _372  and  _375
REMARK  154  A    between atoms: _378  and  _380
REMARK  155  A    between atoms: _380  and  _381
REMARK  156  A    between atoms: _380  and  _383
REMARK  157  A    between atoms: _384  and  _385
REMARK  158  A    between atoms: _385  and  _386
REMARK  159  A    between atoms: _386  and  _387
REMARK  160  A    between atoms: _391  and  _393
REMARK  161  A    between atoms: _393  and  _394
REMARK  162  A    between atoms: _393  and  _396
REMARK  163  A    between atoms: _396  and  _397
REMARK  164  A    between atoms: _397  and  _398
REMARK  165  A    between atoms: _400  and  _402
REMARK  166  A    between atoms: _402  and  _403
REMARK  167  A    between atoms: _402  and  _405
REMARK  168  A    between atoms: _405  and  _406
REMARK  169  A    between atoms: _409  and  _411
REMARK  170  A    between atoms: _411  and  _412
REMARK  171  A    between atoms: _414  and  _416
REMARK  172  A    between atoms: _416  and  _417
REMARK  173  A    between atoms: _419  and  _421
REMARK  174  A    between atoms: _421  and  _422
REMARK  175  A    between atoms: _421  and  _424
REMARK  176  A    between atoms: _424  and  _425
REMARK  177  A    between atoms: _428  and  _430
REMARK  178  A    between atoms: _430  and  _431
REMARK  179  A    between atoms: _433  and  _435
REMARK  180  A    between atoms: _435  and  _436
REMARK  181  A    between atoms: _438  and  _440
REMARK  182  A    between atoms: _440  and  _441
REMARK  183  A    between atoms: _440  and  _443
REMARK  184  A    between atoms: _443  and  _444
REMARK  185  A    between atoms: _450  and  _452
REMARK  186  A    between atoms: _452  and  _453
REMARK  187  A    between atoms: _452  and  _455
REMARK  188  A    between atoms: _455  and  _456
REMARK  189  A    between atoms: _459  and  _461
REMARK  190  A    between atoms: _461  and  _462
REMARK  191  A    between atoms: _461  and  _464
REMARK  192  A    between atoms: _467  and  _469
REMARK  193  A    between atoms: _469  and  _470
REMARK  194  A    between atoms: _469  and  _472
REMARK  195  A    between atoms: _472  and  _473
REMARK  196  A    between atoms: _476  and  _478
REMARK  197  A    between atoms: _478  and  _479
REMARK  198  A    between atoms: _478  and  _481
REMARK  199  A    between atoms: _481  and  _482
REMARK  200  A    between atoms: _486  and  _487
REMARK  201  A    between atoms: _492  and  _494
REMARK  202  A    between atoms: _494  and  _495
REMARK  203  A    between atoms: _494  and  _497
REMARK  204  A    between atoms: _500  and  _502
REMARK  205  A    between atoms: _502  and  _503
REMARK  206  A    between atoms: _502  and  _505
REMARK  207  A    between atoms: _505  and  _506
REMARK  208  A    between atoms: _511  and  _513
REMARK  209  A    between atoms: _513  and  _514
REMARK  210  A    between atoms: _513  and  _516
REMARK  211  A    between atoms: _516  and  _517
REMARK  212  A    between atoms: _520  and  _522
REMARK  213  A    between atoms: _522  and  _523
REMARK  214  A    between atoms: _522  and  _525
REMARK  215  A    between atoms: _525  and  _526
REMARK  216  A    between atoms: _529  and  _531
REMARK  217  A    between atoms: _531  and  _532
REMARK  218  A    between atoms: _534  and  _536
REMARK  219  A    between atoms: _536  and  _537
REMARK  220  A    between atoms: _536  and  _539
REMARK  221  A    between atoms: _539  and  _540
REMARK  222  A    between atoms: _540  and  _541
REMARK  223  A    between atoms: _541  and  _542
REMARK  224  A    between atoms: _551  and  _553
REMARK  225  A    between atoms: _553  and  _554
REMARK  226  A    between atoms: _553  and  _556
REMARK  227  A    between atoms: _556  and  _557
REMARK                            x       y       z     vdW  Elec       q    Type
REMARK                         _______ _______ _______ _____ _____    ______ ____
ROOT
ATOM      1  C   GLY A   5      11.127  23.518  18.929  0.00  0.00    +0.243 C 
ATOM      2  N   ALA A   6      11.096  23.217  20.222  0.00  0.00    -0.297 N 
ATOM      3  H   ALA A   6      11.031  23.993  20.911  0.00  0.00    +0.150 HD
ATOM      4  O   GLY A   5      11.193  22.633  18.052  0.00  0.00    -0.273 OA
ENDROOT
BRANCH   2   5
ATOM      5  CA  ALA A   6      11.149  21.856  20.716  0.00  0.00    +0.149 C 
ATOM      6  CB  ALA A   6      12.119  21.767  21.882  0.00  0.00    +0.031 C 
BRANCH   5   7
ATOM      7  C   ALA A   6       9.752  21.463  21.172  0.00  0.00    +0.241 C 
ATOM      8  O   ALA A   6       9.152  22.106  22.027  0.00  0.00    -0.273 OA
ATOM      9  N   ASP A   7       9.235  20.329  20.662  0.00  0.00    -0.297 N 
ATOM     10  H   ASP A   7       9.766  19.783  19.954  0.00  0.00    +0.150 HD
BRANCH   9  11
ATOM     11  CA  ASP A   7       7.929  19.873  21.109  0.00  0.00    +0.160 C 
BRANCH  11  12
ATOM     12  C   ASP A   7       8.000  19.398  22.557  0.00  0.00    +0.241 C 
ATOM     13  O   ASP A   7       7.033  19.557  23.327  0.00  0.00    -0.273 OA
ATOM     14  N   ASP A   8       9.116  18.788  22.910  0.00  0.00    -0.297 N 
ATOM     15  H   ASP A   8       9.904  18.825  22.232  0.00  0.00    +0.150 HD
BRANCH  14  16
ATOM     16  CA  ASP A   8       9.355  18.070  24.149  0.00  0.00    +0.160 C 
BRANCH  16  17
ATOM     17  C   ASP A   8      10.563  18.696  24.869  0.00  0.00    +0.241 C 
ATOM     18  N   THR A   9      10.686  18.330  26.127  0.00  0.00    -0.295 N 
ATOM     19  H   THR A   9       9.960  17.698  26.521  0.00  0.00    +0.150 HD
ATOM     20  O   ASP A   8      11.329  19.430  24.301  0.00  0.00    -0.273 OA
BRANCH  18  21
ATOM     21  CA  THR A   9      11.771  18.750  27.008  0.00  0.00    +0.176 C 
BRANCH  21  22
ATOM     22  C   THR A   9      12.823  17.663  27.047  0.00  0.00    +0.243 C 
ATOM     23  O   THR A   9      12.491  16.514  27.281  0.00  0.00    -0.273 OA
ATOM     24  N   VAL A  10      14.092  18.053  26.812  0.00  0.00    -0.298 N 
ATOM     25  H   VAL A  10      14.273  19.070  26.688  0.00  0.00    +0.150 HD
BRANCH  24  26
ATOM     26  CA  VAL A  10      15.227  17.142  26.720  0.00  0.00    +0.137 C 
BRANCH  26  27
ATOM     27  CB  VAL A  10      15.796  16.985  25.298  0.00  0.00    +0.026 C 
ATOM     28  CG2 VAL A  10      16.639  15.711  25.256  0.00  0.00    +0.002 C 
ATOM     29  CG1 VAL A  10      14.711  16.904  24.231  0.00  0.00    +0.002 C 
ENDBRANCH  26  27
BRANCH  26  30
ATOM     30  C   VAL A  10      16.317  17.630  27.688  0.00  0.00    +0.227 C 
ATOM     31  O   VAL A  10      16.749  18.785  27.616  0.00  0.00    -0.286 OA
ENDBRANCH  26  30
ENDBRANCH  24  26
ENDBRANCH  21  22
BRANCH  21  32
ATOM     32  CB  THR A   9      11.187  19.030  28.400  0.00  0.00    +0.137 C 
ATOM     33  CG2 THR A   9      12.232  19.272  29.449  0.00  0.00    +0.034 C 
BRANCH  32  34
ATOM     34  OG1 THR A   9      10.334  20.181  28.296  0.00  0.00    -0.382 OA
ATOM     35  HG1 THR A   9       9.608  19.995  27.650  0.00  0.00    +0.210 HD
ENDBRANCH  32  34
ENDBRANCH  21  32
ENDBRANCH  18  21
ENDBRANCH  16  17
BRANCH  16  36
ATOM     36  CB  ASP A   8       9.634  16.584  23.874  0.00  0.00    +0.143 C 
BRANCH  36  37
ATOM     37  CG  ASP A   8       8.520  15.817  23.183  0.00  0.00    +0.367 C 
ATOM     38  OD2 ASP A   8       7.374  16.171  23.372  0.00  0.00    -0.246 OA
ATOM     39  OD1 ASP A   8       8.861  14.878  22.442  0.00  0.00    -0.246 OA
ENDBRANCH  36  37
ENDBRANCH  16  36
ENDBRANCH  14  16
ENDBRANCH  11  12
BRANCH  11  40
ATOM     40  CB  ASP A   7       7.434  18.713  20.257  0.00  0.00    +0.143 C 
BRANCH  40  41
ATOM     41  CG  ASP A   7       7.194  18.986  18.797  0.00  0.00    +0.367 C 
ATOM     42  OD2 ASP A   7       7.238  20.146  18.359  0.00  0.00    -0.246 OA
ATOM     43  OD1 ASP A   7       6.861  17.986  18.108  0.00  0.00    -0.246 OA
ENDBRANCH  40  41
ENDBRANCH  11  40
ENDBRANCH   9  11
ENDBRANCH   5   7
ENDBRANCH   2   5
BRANCH   1  44
ATOM     44  CA  GLY A   5      11.120  24.982  18.555  0.00  0.00    +0.176 C 
BRANCH  44  47
ATOM     45  C   THR A   4       9.775  26.209  20.154  0.00  0.00    +0.243 C 
ATOM     46  O   THR A   4       8.697  25.830  19.655  0.00  0.00    -0.273 OA
ATOM     47  N   GLY A   5      10.963  25.901  19.653  0.00  0.00    -0.295 N 
ATOM     48  H   GLY A   5      11.811  26.338  20.067  0.00  0.00    +0.150 HD
BRANCH  45  49
ATOM     49  CA  THR A   4       9.713  27.102  21.388  0.00  0.00    +0.176 C 
BRANCH  49  52
ATOM     50  C   ASP A   3      11.552  26.217  22.706  0.00  0.00    +0.241 C 
ATOM     51  O   ASP A   3      11.010  25.117  22.757  0.00  0.00    -0.273 OA
ATOM     52  N   THR A   4      11.004  27.247  22.046  0.00  0.00    -0.295 N 
ATOM     53  H   THR A   4      11.505  28.157  22.003  0.00  0.00    +0.150 HD
BRANCH  50  54
ATOM     54  CA  ASP A   3      12.912  26.484  23.355  0.00  0.00    +0.160 C 
BRANCH  54  56
ATOM     55  C   LEU A   2      13.313  27.923  25.283  0.00  0.00    +0.241 C 
ATOM     56  N   ASP A   3      12.759  26.831  24.771  0.00  0.00    -0.297 N 
ATOM     57  H   ASP A   3      12.203  26.206  25.389  0.00  0.00    +0.150 HD
ATOM     58  O   LEU A   2      13.743  28.865  24.605  0.00  0.00    -0.273 OA
BRANCH  55  59
ATOM     59  CA  LEU A   2      13.422  27.983  26.815  0.00  0.00    +0.149 C 
BRANCH  59  61
ATOM     60  C   LEU A   1      15.549  26.828  27.124  0.00  0.00    +0.238 C 
ATOM     61  N   LEU A   2      14.840  27.957  27.161  0.00  0.00    -0.297 N 
ATOM     62  H   LEU A   2      15.309  28.841  27.443  0.00  0.00    +0.150 HD
ATOM     63  O   LEU A   1      15.033  25.740  26.846  0.00  0.00    -0.274 OA
BRANCH  60  64
ATOM     64  CA  LEU A   1      17.031  26.910  27.370  0.00  0.00    +0.145 C 
BRANCH  64  65
ATOM     65  N   LEU A   1      17.429  25.991  28.427  0.00  0.00    -0.238 NA
ATOM     66  H   LEU A   1      17.490  24.982  28.182  0.00  0.00    +0.142 HD
ENDBRANCH  64  65
BRANCH  64  67
ATOM     67  CB  LEU A   1      17.823  26.508  26.120  0.00  0.00    +0.026 C 
BRANCH  67  68
ATOM     68  CG  LEU A   1      18.398  27.404  25.046  0.00  0.00    +0.002 C 
ATOM     69  CD2 LEU A   1      17.762  28.768  24.964  0.00  0.00    +0.000 C 
ATOM     70  CD1 LEU A   1      18.390  26.664  23.698  0.00  0.00    +0.000 C 
ENDBRANCH  67  68
ENDBRANCH  64  67
ENDBRANCH  60  64
ENDBRANCH  59  61
BRANCH  59  71
ATOM     71  CB  LEU A   2      12.745  29.240  27.351  0.00  0.00    +0.029 C 
BRANCH  71  72
ATOM     72  CG  LEU A   2      12.851  29.431  28.866  0.00  0.00    +0.002 C 
ATOM     73  CD2 LEU A   2      12.302  28.247  29.634  0.00  0.00    +0.000 C 
ATOM     74  CD1 LEU A   2      12.091  30.706  29.235  0.00  0.00    +0.000 C 
ENDBRANCH  71  72
ENDBRANCH  59  71
ENDBRANCH  55  59
ENDBRANCH  54  56
BRANCH  54  75
ATOM     75  CB  ASP A   3      13.818  25.273  23.242  0.00  0.00    +0.143 C 
BRANCH  75  76
ATOM     76  CG  ASP A   3      14.221  24.892  21.858  0.00  0.00    +0.367 C 
ATOM     77  OD2 ASP A   3      15.180  24.109  21.661  0.00  0.00    -0.246 OA
ATOM     78  OD1 ASP A   3      13.559  25.444  20.927  0.00  0.00    -0.246 OA
ENDBRANCH  75  76
ENDBRANCH  54  75
ENDBRANCH  50  54
ENDBRANCH  49  52
BRANCH  49  79
ATOM     79  CB  THR A   4       9.128  28.460  21.005  0.00  0.00    +0.137 C 
ATOM     80  CG2 THR A   4       8.890  29.348  22.225  0.00  0.00    +0.034 C 
BRANCH  79  81
ATOM     81  OG1 THR A   4      10.024  29.142  20.115  0.00  0.00    -0.382 OA
ATOM     82  HG1 THR A   4      10.153  28.598  19.298  0.00  0.00    +0.210 HD
ENDBRANCH  79  81
ENDBRANCH  49  79
ENDBRANCH  45  49
ENDBRANCH  44  47
ENDBRANCH   1  44
TORSDOF 35
REMARK  Name = ../refined-set-2016/3a2o/3a2o_pocket.pdb
REMARK  227 active torsions:
REMARK  status: ('A' for Active; 'I' for Inactive)
REMARK    1  A    between atoms: _1  and  _3
REMARK    2  A    between atoms: _3  and  _4
REMARK    3  A    between atoms: _3  and  _6
REMARK    4  A    between atoms: _6  and  _7
REMARK    5  A    between atoms: _7  and  _8
REMARK    6  A    between atoms: _8  and  _9
REMARK    7  A    between atoms: _18  and  _20
REMARK    8  A    between atoms: _20  and  _21
REMARK    9  A    between atoms: _20  and  _23
REMARK   10  A    between atoms: _23  and  _24
REMARK   11  A    between atoms: _27  and  _29
REMARK   12  A    between atoms: _29  and  _30
REMARK   13  A    between atoms: _29  and  _32
REMARK   14  A    between atoms: _32  and  _33
REMARK   15  A    between atoms: _36  and  _38
REMARK   16  A    between atoms: _38  and  _39
REMARK   17  A    between atoms: _38  and  _41
REMARK   18  A    between atoms: _41  and  _42
REMARK   19  A    between atoms: _45  and  _47
REMARK   20  A    between atoms: _47  and  _48
REMARK   21  A    between atoms: _47  and  _50
REMARK   22  A    between atoms: _50  and  _51
REMARK   23  A    between atoms: _54  and  _56
REMARK   24  A    between atoms: _56  and  _57
REMARK   25  A    between atoms: _59  and  _61
REMARK   26  A    between atoms: _61  and  _62
REMARK   27  A    between atoms: _65  and  _67
REMARK   28  A    between atoms: _67  and  _68
REMARK   29  A    between atoms: _67  and  _70
REMARK   30  A    between atoms: _70  and  _71
REMARK   31  A    between atoms: _74  and  _76
REMARK   32  A    between atoms: _76  and  _77
REMARK   33  A    between atoms: _76  and  _79
REMARK   34  A    between atoms: _79  and  _80
REMARK   35  A    between atoms: _83  and  _85
REMARK   36  A    between atoms: _85  and  _86
REMARK   37  A    between atoms: _85  and  _88
REMARK   38  A    between atoms: _88  and  _89
REMARK   39  A    between atoms: _92  and  _94
REMARK   40  A    between atoms: _94  and  _95
REMARK   41  A    between atoms: _94  and  _97
REMARK   42  A    between atoms: _100  and  _102
REMARK   43  A    between atoms: _102  and  _103
REMARK   44  A    between atoms: _102  and  _105
REMARK   45  A    between atoms: _106  and  _107
REMARK   46  A    between atoms: _107  and  _108
REMARK   47  A    between atoms: _108  and  _109
REMARK   48  A    between atoms: _113  and  _115
REMARK   49  A    between atoms: _115  and  _116
REMARK   50  A    between atoms: _115  and  _118
REMARK   51  A    between atoms: _118  and  _119
REMARK   52  A    between atoms: _119  and  _120
REMARK   53  A    between atoms: _122  and  _124
REMARK   54  A    between atoms: _124  and  _125
REMARK   55  A    between atoms: _124  and  _127
REMARK   56  A    between atoms: _127  and  _128
REMARK   57  A    between atoms: _131  and  _133
REMARK   58  A    between atoms: _133  and  _134
REMARK   59  A    between atoms: _136  and  _138
REMARK   60  A    between atoms: _138  and  _139
REMARK   61  A    between atoms: _141  and  _143
REMARK   62  A    between atoms: _143  and  _144
REMARK   63  A    between atoms: _143  and  _146
REMARK   64  A    between atoms: _146  and  _147
REMARK   65  A    between atoms: _150  and  _152
REMARK   66  A    between atoms: _152  and  _153
REMARK   67  A    between atoms: _155  and  _157
REMARK   68  A    between atoms: _157  and  _158
REMARK   69  A    between atoms: _160  and  _162
REMARK   70  A    between atoms: _162  and  _163
REMARK   71  A    between atoms: _162  and  _165
REMARK   72  A    between atoms: _165  and  _166
REMARK   73  A    between atoms: _169  and  _171
REMARK   74  A    between atoms: _171  and  _172
REMARK   75  A    between atoms: _171  and  _174
REMARK   76  A    between atoms: _177  and  _179
REMARK   77  A    between atoms: _179  and  _180
REMARK   78  A    between atoms: _179  and  _182
REMARK   79  A    between atoms: _182  and  _183
REMARK   80  A    between atoms: _187  and  _188
REMARK   81  A    between atoms: _193  and  _195
REMARK   82  A    between atoms: _195  and  _196
REMARK   83  A    between atoms: _195  and  _198
REMARK   84  A    between atoms: _198  and  _199
REMARK   85  A    between atoms: _203  and  _204
REMARK   86  A    between atoms: _209  and  _211
REMARK   87  A    between atoms: _211  and  _212
REMARK   88  A    between atoms: _211  and  _214
REMARK   89  A    between atoms: _217  and  _219
REMARK   90  A    between atoms: _219  and  _220
REMARK   91  A    between atoms: _219  and  _222
REMARK   92  A    between atoms: _222  and  _223
REMARK   93  A    between atoms: _228  and  _230
REMARK   94  A    between atoms: _230  and  _231
REMARK   95  A    between atoms: _230  and  _233
REMARK   96  A    between atoms: _233  and  _234
REMARK   97  A    between atoms: _237  and  _239
REMARK   98  A    between atoms: _239  and  _240
REMARK   99  A    between atoms: _239  and  _242
REMARK  100  A    between atoms: _242  and  _243
REMARK  101  A    between atoms: _246  and  _248
REMARK  102  A    between atoms: _248  and  _249
REMARK  103  A    between atoms: _251  and  _253
REMARK  104  A    between atoms: _253  and  _254
REMARK  105  A    between atoms: _253  and  _256
REMARK  106  A    between atoms: _256  and  _257
REMARK  107  A    between atoms: _257  and  _258
REMARK  108  A    between atoms: _258  and  _259
REMARK  109  A    between atoms: _268  and  _270
REMARK  110  A    between atoms: _270  and  _271
REMARK  111  A    between atoms: _270  and  _273
REMARK  112  A    between atoms: _273  and  _274
REMARK  113  A    between atoms: _279  and  _281
REMARK  114  A    between atoms: _281  and  _282
REMARK  115  A    between atoms: _281  and  _284
REMARK  116  A    between atoms: _284  and  _285
REMARK  117  A    between atoms: _285  and  _286
REMARK  118  A    between atoms: _286  and  _287
REMARK  119  A    between atoms: _296  and  _298
REMARK  120  A    between atoms: _298  and  _299
REMARK  121  A    between atoms: _298  and  _301
REMARK  122  A    between atoms: _301  and  _302
REMARK  123  A    between atoms: _305  and  _307
REMARK  124  A    between atoms: _307  and  _308
REMARK  125  A    between atoms: _307  and  _310
REMARK  126  A    between atoms: _310  and  _311
REMARK  127  A    between atoms: _314  and  _316
REMARK  128  A    between atoms: _316  and  _317
REMARK  129  A    between atoms: _316  and  _319
REMARK  130  A    between atoms: _319  and  _320
REMARK  131  A    between atoms: _323  and  _325
REMARK  132  A    between atoms: _325  and  _326
REMARK  133  A    between atoms: _325  and  _328
REMARK  134  A    between atoms: _328  and  _329
REMARK  135  A    between atoms: _332  and  _334
REMARK  136  A    between atoms: _334  and  _335
REMARK  137  A    between atoms: _337  and  _339
REMARK  138  A    between atoms: _339  and  _340
REMARK  139  A    between atoms: _343  and  _345
REMARK  140  A    between atoms: _345  and  _346
REMARK  141  A    between atoms: _345  and  _348
REMARK  142  A    between atoms: _348  and  _349
REMARK  143  A    between atoms: _352  and  _354
REMARK  144  A    between atoms: _354  and  _355
REMARK  145  A    between atoms: _354  and  _357
REMARK  146  A    between atoms: _357  and  _358
REMARK  147  A    between atoms: _361  and  _363
REMARK  148  A    between atoms: _363  and  _364
REMARK  149  A    between atoms: _363  and  _366
REMARK  150  A    between atoms: _366  and  _367
REMARK  151  A    between atoms: _370  and  _372
REMARK  152  A    between atoms: _372  and  _373
REMARK  153  A    between atoms: _372  and  _375
REMARK  154  A    between atoms: _378  and  _380
REMARK  155  A    between atoms: _380  and  _381
REMARK  156  A    between atoms: _380  and  _383
REMARK  157  A    between atoms: _384  and  _385
REMARK  158  A    between atoms: _385  and  _386
REMARK  159  A    between atoms: _386  and  _387
REMARK  160  A    between atoms: _391  and  _393
REMARK  161  A    between atoms: _393  and  _394
REMARK  162  A    between atoms: _393  and  _396
REMARK  163  A    between atoms: _396  and  _397
REMARK  164  A    between atoms: _397  and  _398
REMARK  165  A    between atoms: _400  and  _402
REMARK  166  A    between atoms: _402  and  _403
REMARK  167  A    between atoms: _402  and  _405
REMARK  168  A    between atoms: _405  and  _406
REMARK  169  A    between atoms: _409  and  _411
REMARK  170  A    between atoms: _411  and  _412
REMARK  171  A    between atoms: _414  and  _416
REMARK  172  A    between atoms: _416  and  _417
REMARK  173  A    between atoms: _419  and  _421
REMARK  174  A    between atoms: _421  and  _422
REMARK  175  A    between atoms: _421  and  _424
REMARK  176  A    between atoms: _424  and  _425
REMARK  177  A    between atoms: _428  and  _430
REMARK  178  A    between atoms: _430  and  _431
REMARK  179  A    between atoms: _433  and  _435
REMARK  180  A    between atoms: _435  and  _436
REMARK  181  A    between atoms: _438  and  _440
REMARK  182  A    between atoms: _440  and  _441
REMARK  183  A    between atoms: _440  and  _443
REMARK  184  A    between atoms: _443  and  _444
REMARK  185  A    between atoms: _450  and  _452
REMARK  186  A    between atoms: _452  and  _453
REMARK  187  A    between atoms: _452  and  _455
REMARK  188  A    between atoms: _455  and  _456
REMARK  189  A    between atoms: _459  and  _461
REMARK  190  A    between atoms: _461  and  _462
REMARK  191  A    between atoms: _461  and  _464
REMARK  192  A    between atoms: _467  and  _469
REMARK  193  A    between atoms: _469  and  _470
REMARK  194  A    between atoms: _469  and  _472
REMARK  195  A    between atoms: _472  and  _473
REMARK  196  A    between atoms: _476  and  _478
REMARK  197  A    between atoms: _478  and  _479
REMARK  198  A    between atoms: _478  and  _481
REMARK  199  A    between atoms: _481  and  _482
REMARK  200  A    between atoms: _486  and  _487
REMARK  201  A    between atoms: _492  and  _494
REMARK  202  A    between atoms: _494  and  _495
REMARK  203  A    between atoms: _494  and  _497
REMARK  204  A    between atoms: _500  and  _502
REMARK  205  A    between atoms: _502  and  _503
REMARK  206  A    between atoms: _502  and  _505
REMARK  207  A    between atoms: _505  and  _506
REMARK  208  A    between atoms: _511  and  _513
REMARK  209  A    between atoms: _513  and  _514
REMARK  210  A    between atoms: _513  and  _516
REMARK  211  A    between atoms: _516  and  _517
REMARK  212  A    between atoms: _520  and  _522
REMARK  213  A    between atoms: _522  and  _523
REMARK  214  A    between atoms: _522  and  _525
REMARK  215  A    between atoms: _525  and  _526
REMARK  216  A    between atoms: _529  and  _531
REMARK  217  A    between atoms: _531  and  _532
REMARK  218  A    between atoms: _534  and  _536
REMARK  219  A    between atoms: _536  and  _537
REMARK  220  A    between atoms: _536  and  _539
REMARK  221  A    between atoms: _539  and  _540
REMARK  222  A    between atoms: _540  and  _541
REMARK  223  A    between atoms: _541  and  _542
REMARK  224  A    between atoms: _551  and  _553
REMARK  225  A    between atoms: _553  and  _554
REMARK  226  A    between atoms: _553  and  _556
REMARK  227  A    between atoms: _556  and  _557
REMARK                            x       y       z     vdW  Elec       q    Type
REMARK                         _______ _______ _______ _____ _____    ______ ____
ROOT
ATOM      1  C   GLY A   5      17.570  18.191  14.207  0.00  0.00    +0.243 C 
ATOM      2  N   ILE A   6      18.320  19.278  14.317  0.00  0.00    -0.297 N 
ATOM      3  H   ILE A   6      18.481  19.700  15.254  0.00  0.00    +0.150 HD
ATOM      4  O   GLY A   5      17.447  17.573  13.159  0.00  0.00    -0.273 OA
ENDROOT
BRANCH   2   5
ATOM      5  CA  ILE A   6      18.924  19.890  13.133  0.00  0.00    +0.149 C 
BRANCH   5   6
ATOM      6  C   ILE A   6      19.868  18.921  12.404  0.00  0.00    +0.241 C 
ATOM      7  N   GLY A   7      20.569  18.085  13.151  0.00  0.00    -0.295 N 
ATOM      8  H   GLY A   7      20.406  18.055  14.178  0.00  0.00    +0.150 HD
ATOM      9  O   ILE A   6      19.956  19.003  11.180  0.00  0.00    -0.273 OA
BRANCH   7  10
ATOM     10  CA  GLY A   7      21.562  17.209  12.560  0.00  0.00    +0.176 C 
BRANCH  10  11
ATOM     11  C   GLY A   7      21.123  15.794  12.275  0.00  0.00    +0.243 C 
ATOM     12  N   GLY A   8      19.941  15.394  12.676  0.00  0.00    -0.295 N 
ATOM     13  H   GLY A   8      19.289  16.117  13.042  0.00  0.00    +0.150 HD
ATOM     14  O   GLY A   7      21.956  15.047  11.679  0.00  0.00    -0.273 OA
BRANCH  12  15
ATOM     15  CA  GLY A   8      19.479  14.044  12.649  0.00  0.00    +0.176 C 
BRANCH  15  16
ATOM     16  C   GLY A   8      18.760  13.682  13.943  0.00  0.00    +0.243 C 
ATOM     17  O   GLY A   8      18.256  14.507  14.636  0.00  0.00    -0.273 OA
ATOM     18  N   PHE A   9      18.727  12.412  14.222  0.00  0.00    -0.297 N 
ATOM     19  H   PHE A   9      19.265  11.754  13.623  0.00  0.00    +0.150 HD
BRANCH  18  20
ATOM     20  CA  PHE A   9      17.968  11.878  15.338  0.00  0.00    +0.153 C 
BRANCH  20  21
ATOM     21  C   PHE A   9      18.853  11.391  16.484  0.00  0.00    +0.241 C 
ATOM     22  N   ILE A  10      18.330  11.454  17.700  0.00  0.00    -0.298 N 
ATOM     23  H   ILE A  10      17.452  11.995  17.831  0.00  0.00    +0.150 HD
ATOM     24  O   PHE A   9      19.954  10.863  16.250  0.00  0.00    -0.273 OA
BRANCH  22  25
ATOM     25  CA  ILE A  10      18.905  10.822  18.834  0.00  0.00    +0.137 C 
BRANCH  25  26
ATOM     26  CB  ILE A  10      19.562  11.808  19.828  0.00  0.00    +0.026 C 
ATOM     27  CG2 ILE A  10      20.701  12.585  19.213  0.00  0.00    +0.002 C 
BRANCH  26  28
ATOM     28  CG1 ILE A  10      18.519  12.739  20.446  0.00  0.00    +0.002 C 
ATOM     29  CD1 ILE A  10      18.998  13.618  21.586  0.00  0.00    +0.000 C 
ENDBRANCH  26  28
ENDBRANCH  25  26
BRANCH  25  30
ATOM     30  C   ILE A  10      17.863   9.962  19.548  0.00  0.00    +0.227 C 
ATOM     31  O   ILE A  10      16.654  10.215  19.470  0.00  0.00    -0.286 OA
ENDBRANCH  25  30
ENDBRANCH  22  25
ENDBRANCH  20  21
BRANCH  20  32
ATOM     32  CB  PHE A   9      17.152  10.643  14.853  0.00  0.00    +0.055 C 
BRANCH  32  33
ATOM     33  CG  PHE A   9      16.110  11.101  13.830  0.00  0.00    -0.020 A 
ATOM     34  CD2 PHE A   9      14.808  11.348  14.235  0.00  0.00    -0.004 A 
ATOM     35  CE2 PHE A   9      13.826  11.826  13.340  0.00  0.00    -0.000 A 
ATOM     36  CZ  PHE A   9      14.202  12.115  12.050  0.00  0.00    -0.000 A 
ATOM     37  CE1 PHE A   9      15.516  11.849  11.664  0.00  0.00    -0.000 A 
ATOM     38  CD1 PHE A   9      16.477  11.357  12.525  0.00  0.00    -0.004 A 
ENDBRANCH  32  33
ENDBRANCH  20  32
ENDBRANCH  18  20
ENDBRANCH  15  16
ENDBRANCH  12  15
ENDBRANCH  10  11
ENDBRANCH   7  10
ENDBRANCH   5   6
BRANCH   5  39
ATOM     39  CB  ILE A   6      19.630  21.209  13.517  0.00  0.00    +0.027 C 
ATOM     40  CG2 ILE A   6      20.852  20.990  14.388  0.00  0.00    +0.002 C 
BRANCH  39  41
ATOM     41  CG1 ILE A   6      19.979  22.088  12.320  0.00  0.00    +0.002 C 
ATOM     42  CD1 ILE A   6      18.793  22.549  11.512  0.00  0.00    +0.000 C 
ENDBRANCH  39  41
ENDBRANCH   5  39
ENDBRANCH   2   5
BRANCH   1  43
ATOM     43  CA  GLY A   5      16.873  17.761  15.506  0.00  0.00    +0.176 C 
BRANCH  43  46
ATOM     44  C   GLY A   4      15.137  16.061  15.550  0.00  0.00    +0.243 C 
ATOM     45  O   GLY A   4      14.233  16.830  15.804  0.00  0.00    -0.273 OA
ATOM     46  N   GLY A   5      16.418  16.417  15.406  0.00  0.00    -0.295 N 
ATOM     47  H   GLY A   5      17.118  15.673  15.211  0.00  0.00    +0.150 HD
BRANCH  44  48
ATOM     48  CA  GLY A   4      14.918  14.562  15.294  0.00  0.00    +0.176 C 
BRANCH  48  51
ATOM     49  C   ILE A   3      14.659  13.251  17.353  0.00  0.00    +0.241 C 
ATOM     50  O   ILE A   3      15.855  12.973  17.352  0.00  0.00    -0.273 OA
ATOM     51  N   GLY A   4      14.119  14.008  16.387  0.00  0.00    -0.295 N 
ATOM     52  H   GLY A   4      13.099  14.208  16.416  0.00  0.00    +0.150 HD
BRANCH  49  53
ATOM     53  CA  ILE A   3      13.677  12.772  18.395  0.00  0.00    +0.149 C 
BRANCH  53  55
ATOM     54  C   MET A   2      13.104  10.484  18.748  0.00  0.00    +0.241 C 
ATOM     55  N   ILE A   3      14.061  11.394  18.736  0.00  0.00    -0.297 N 
ATOM     56  H   ILE A   3      15.046  11.146  18.959  0.00  0.00    +0.150 HD
ATOM     57  O   MET A   2      11.919  10.715  18.514  0.00  0.00    -0.273 OA
BRANCH  54  58
ATOM     58  CA  MET A   2      13.548   9.037  19.007  0.00  0.00    +0.149 C 
BRANCH  58  61
ATOM     59  C   LYS A   1      12.859   8.127  21.190  0.00  0.00    +0.243 C 
ATOM     60  O   LYS A   1      14.005   8.094  21.653  0.00  0.00    -0.273 OA
ATOM     61  N   MET A   2      12.580   8.476  19.949  0.00  0.00    -0.297 N 
ATOM     62  H   MET A   2      11.603   8.343  19.617  0.00  0.00    +0.150 HD
BRANCH  59  63
ATOM     63  CA  LYS A   1      11.640   7.753  22.036  0.00  0.00    +0.167 C 
BRANCH  63  64
ATOM     64  N   LYS A   1      12.093   6.810  23.040  0.00  0.00    -0.234 NA
ATOM     65  H   LYS A   1      13.064   6.887  23.405  0.00  0.00    +0.142 HD
ENDBRANCH  63  64
BRANCH  63  66
ATOM     66  CB  LYS A   1      10.964   8.997  22.637  0.00  0.00    -0.005 C 
ATOM     67  CG  LYS A   1      10.121   9.831  21.707  0.00  0.00    -0.031 C 
BRANCH  67  68
ATOM     68  CD  LYS A   1       9.386  10.963  22.306  0.00  0.00    +0.002 C 
BRANCH  68  69
ATOM     69  CE  LYS A   1       8.372  11.536  21.322  0.00  0.00    -0.081 C 
BRANCH  69  70
ATOM     70  NZ  LYS A   1       7.452  12.532  21.960  0.00  0.00    +0.381 N 
ATOM     71  HZ1 LYS A   1       6.926  12.072  22.731  0.00  0.00    -0.089 HD
ATOM     72  HZ2 LYS A   1       8.010  13.322  22.342  0.00  0.00    -0.089 HD
ATOM     73  HZ3 LYS A   1       6.784  12.890  21.248  0.00  0.00    -0.089 HD
ENDBRANCH  69  70
ENDBRANCH  68  69
ENDBRANCH  67  68
ENDBRANCH  63  66
ENDBRANCH  59  63
ENDBRANCH  58  61
BRANCH  58  74
ATOM     74  CB  MET A   2      13.603   8.215  17.698  0.00  0.00    +0.041 C 
BRANCH  74  75
ATOM     75  CG  MET A   2      14.450   6.965  18.021  0.00  0.00    +0.060 C 
BRANCH  75  76
ATOM     76  SD  MET A   2      15.228   6.342  16.555  0.00  0.00    -0.139 S 
ATOM     77  CE  MET A   2      14.690   7.354  15.218  0.00  0.00    +0.069 C 
ENDBRANCH  75  76
ENDBRANCH  74  75
ENDBRANCH  58  74
ENDBRANCH  54  58
ENDBRANCH  53  55
BRANCH  53  78
ATOM     78  CB  ILE A   3      13.530  13.647  19.672  0.00  0.00    +0.027 C 
ATOM     79  CG2 ILE A   3      12.326  13.287  20.602  0.00  0.00    +0.002 C 
BRANCH  78  80
ATOM     80  CG1 ILE A   3      14.880  13.656  20.337  0.00  0.00    +0.002 C 
ATOM     81  CD1 ILE A   3      14.990  14.627  21.538  0.00  0.00    +0.000 C 
ENDBRANCH  78  80
ENDBRANCH  53  78
ENDBRANCH  49  53
ENDBRANCH  48  51
ENDBRANCH  44  48
ENDBRANCH  43  46
ENDBRANCH   1  43
TORSDOF 35
REMARK  Name = ../refined-set-2016/3a2o/3a2o_pocket.pdb
REMARK  227 active torsions:
REMARK  status: ('A' for Active; 'I' for Inactive)
REMARK    1  A    between atoms: _1  and  _3
REMARK    2  A    between atoms: _3  and  _4
REMARK    3  A    between atoms: _3  and  _6
REMARK    4  A    between atoms: _6  and  _7
REMARK    5  A    between atoms: _7  and  _8
REMARK    6  A    between atoms: _8  and  _9
REMARK    7  A    between atoms: _18  and  _20
REMARK    8  A    between atoms: _20  and  _21
REMARK    9  A    between atoms: _20  and  _23
REMARK   10  A    between atoms: _23  and  _24
REMARK   11  A    between atoms: _27  and  _29
REMARK   12  A    between atoms: _29  and  _30
REMARK   13  A    between atoms: _29  and  _32
REMARK   14  A    between atoms: _32  and  _33
REMARK   15  A    between atoms: _36  and  _38
REMARK   16  A    between atoms: _38  and  _39
REMARK   17  A    between atoms: _38  and  _41
REMARK   18  A    between atoms: _41  and  _42
REMARK   19  A    between atoms: _45  and  _47
REMARK   20  A    between atoms: _47  and  _48
REMARK   21  A    between atoms: _47  and  _50
REMARK   22  A    between atoms: _50  and  _51
REMARK   23  A    between atoms: _54  and  _56
REMARK   24  A    between atoms: _56  and  _57
REMARK   25  A    between atoms: _59  and  _61
REMARK   26  A    between atoms: _61  and  _62
REMARK   27  A    between atoms: _65  and  _67
REMARK   28  A    between atoms: _67  and  _68
REMARK   29  A    between atoms: _67  and  _70
REMARK   30  A    between atoms: _70  and  _71
REMARK   31  A    between atoms: _74  and  _76
REMARK   32  A    between atoms: _76  and  _77
REMARK   33  A    between atoms: _76  and  _79
REMARK   34  A    between atoms: _79  and  _80
REMARK   35  A    between atoms: _83  and  _85
REMARK   36  A    between atoms: _85  and  _86
REMARK   37  A    between atoms: _85  and  _88
REMARK   38  A    between atoms: _88  and  _89
REMARK   39  A    between atoms: _92  and  _94
REMARK   40  A    between atoms: _94  and  _95
REMARK   41  A    between atoms: _94  and  _97
REMARK   42  A    between atoms: _100  and  _102
REMARK   43  A    between atoms: _102  and  _103
REMARK   44  A    between atoms: _102  and  _105
REMARK   45  A    between atoms: _106  and  _107
REMARK   46  A    between atoms: _107  and  _108
REMARK   47  A    between atoms: _108  and  _109
REMARK   48  A    between atoms: _113  and  _115
REMARK   49  A    between atoms: _115  and  _116
REMARK   50  A    between atoms: _115  and  _118
REMARK   51  A    between atoms: _118  and  _119
REMARK   52  A    between atoms: _119  and  _120
REMARK   53  A    between atoms: _122  and  _124
REMARK   54  A    between atoms: _124  and  _125
REMARK   55  A    between atoms: _124  and  _127
REMARK   56  A    between atoms: _127  and  _128
REMARK   57  A    between atoms: _131  and  _133
REMARK   58  A    between atoms: _133  and  _134
REMARK   59  A    between atoms: _136  and  _138
REMARK   60  A    between atoms: _138  and  _139
REMARK   61  A    between atoms: _141  and  _143
REMARK   62  A    between atoms: _143  and  _144
REMARK   63  A    between atoms: _143  and  _146
REMARK   64  A    between atoms: _146  and  _147
REMARK   65  A    between atoms: _150  and  _152
REMARK   66  A    between atoms: _152  and  _153
REMARK   67  A    between atoms: _155  and  _157
REMARK   68  A    between atoms: _157  and  _158
REMARK   69  A    between atoms: _160  and  _162
REMARK   70  A    between atoms: _162  and  _163
REMARK   71  A    between atoms: _162  and  _165
REMARK   72  A    between atoms: _165  and  _166
REMARK   73  A    between atoms: _169  and  _171
REMARK   74  A    between atoms: _171  and  _172
REMARK   75  A    between atoms: _171  and  _174
REMARK   76  A    between atoms: _177  and  _179
REMARK   77  A    between atoms: _179  and  _180
REMARK   78  A    between atoms: _179  and  _182
REMARK   79  A    between atoms: _182  and  _183
REMARK   80  A    between atoms: _187  and  _188
REMARK   81  A    between atoms: _193  and  _195
REMARK   82  A    between atoms: _195  and  _196
REMARK   83  A    between atoms: _195  and  _198
REMARK   84  A    between atoms: _198  and  _199
REMARK   85  A    between atoms: _203  and  _204
REMARK   86  A    between atoms: _209  and  _211
REMARK   87  A    between atoms: _211  and  _212
REMARK   88  A    between atoms: _211  and  _214
REMARK   89  A    between atoms: _217  and  _219
REMARK   90  A    between atoms: _219  and  _220
REMARK   91  A    between atoms: _219  and  _222
REMARK   92  A    between atoms: _222  and  _223
REMARK   93  A    between atoms: _228  and  _230
REMARK   94  A    between atoms: _230  and  _231
REMARK   95  A    between atoms: _230  and  _233
REMARK   96  A    between atoms: _233  and  _234
REMARK   97  A    between atoms: _237  and  _239
REMARK   98  A    between atoms: _239  and  _240
REMARK   99  A    between atoms: _239  and  _242
REMARK  100  A    between atoms: _242  and  _243
REMARK  101  A    between atoms: _246  and  _248
REMARK  102  A    between atoms: _248  and  _249
REMARK  103  A    between atoms: _251  and  _253
REMARK  104  A    between atoms: _253  and  _254
REMARK  105  A    between atoms: _253  and  _256
REMARK  106  A    between atoms: _256  and  _257
REMARK  107  A    between atoms: _257  and  _258
REMARK  108  A    between atoms: _258  and  _259
REMARK  109  A    between atoms: _268  and  _270
REMARK  110  A    between atoms: _270  and  _271
REMARK  111  A    between atoms: _270  and  _273
REMARK  112  A    between atoms: _273  and  _274
REMARK  113  A    between atoms: _279  and  _281
REMARK  114  A    between atoms: _281  and  _282
REMARK  115  A    between atoms: _281  and  _284
REMARK  116  A    between atoms: _284  and  _285
REMARK  117  A    between atoms: _285  and  _286
REMARK  118  A    between atoms: _286  and  _287
REMARK  119  A    between atoms: _296  and  _298
REMARK  120  A    between atoms: _298  and  _299
REMARK  121  A    between atoms: _298  and  _301
REMARK  122  A    between atoms: _301  and  _302
REMARK  123  A    between atoms: _305  and  _307
REMARK  124  A    between atoms: _307  and  _308
REMARK  125  A    between atoms: _307  and  _310
REMARK  126  A    between atoms: _310  and  _311
REMARK  127  A    between atoms: _314  and  _316
REMARK  128  A    between atoms: _316  and  _317
REMARK  129  A    between atoms: _316  and  _319
REMARK  130  A    between atoms: _319  and  _320
REMARK  131  A    between atoms: _323  and  _325
REMARK  132  A    between atoms: _325  and  _326
REMARK  133  A    between atoms: _325  and  _328
REMARK  134  A    between atoms: _328  and  _329
REMARK  135  A    between atoms: _332  and  _334
REMARK  136  A    between atoms: _334  and  _335
REMARK  137  A    between atoms: _337  and  _339
REMARK  138  A    between atoms: _339  and  _340
REMARK  139  A    between atoms: _343  and  _345
REMARK  140  A    between atoms: _345  and  _346
REMARK  141  A    between atoms: _345  and  _348
REMARK  142  A    between atoms: _348  and  _349
REMARK  143  A    between atoms: _352  and  _354
REMARK  144  A    between atoms: _354  and  _355
REMARK  145  A    between atoms: _354  and  _357
REMARK  146  A    between atoms: _357  and  _358
REMARK  147  A    between atoms: _361  and  _363
REMARK  148  A    between atoms: _363  and  _364
REMARK  149  A    between atoms: _363  and  _366
REMARK  150  A    between atoms: _366  and  _367
REMARK  151  A    between atoms: _370  and  _372
REMARK  152  A    between atoms: _372  and  _373
REMARK  153  A    between atoms: _372  and  _375
REMARK  154  A    between atoms: _378  and  _380
REMARK  155  A    between atoms: _380  and  _381
REMARK  156  A    between atoms: _380  and  _383
REMARK  157  A    between atoms: _384  and  _385
REMARK  158  A    between atoms: _385  and  _386
REMARK  159  A    between atoms: _386  and  _387
REMARK  160  A    between atoms: _391  and  _393
REMARK  161  A    between atoms: _393  and  _394
REMARK  162  A    between atoms: _393  and  _396
REMARK  163  A    between atoms: _396  and  _397
REMARK  164  A    between atoms: _397  and  _398
REMARK  165  A    between atoms: _400  and  _402
REMARK  166  A    between atoms: _402  and  _403
REMARK  167  A    between atoms: _402  and  _405
REMARK  168  A    between atoms: _405  and  _406
REMARK  169  A    between atoms: _409  and  _411
REMARK  170  A    between atoms: _411  and  _412
REMARK  171  A    between atoms: _414  and  _416
REMARK  172  A    between atoms: _416  and  _417
REMARK  173  A    between atoms: _419  and  _421
REMARK  174  A    between atoms: _421  and  _422
REMARK  175  A    between atoms: _421  and  _424
REMARK  176  A    between atoms: _424  and  _425
REMARK  177  A    between atoms: _428  and  _430
REMARK  178  A    between atoms: _430  and  _431
REMARK  179  A    between atoms: _433  and  _435
REMARK  180  A    between atoms: _435  and  _436
REMARK  181  A    between atoms: _438  and  _440
REMARK  182  A    between atoms: _440  and  _441
REMARK  183  A    between atoms: _440  and  _443
REMARK  184  A    between atoms: _443  and  _444
REMARK  185  A    between atoms: _450  and  _452
REMARK  186  A    between atoms: _452  and  _453
REMARK  187  A    between atoms: _452  and  _455
REMARK  188  A    between atoms: _455  and  _456
REMARK  189  A    between atoms: _459  and  _461
REMARK  190  A    between atoms: _461  and  _462
REMARK  191  A    between atoms: _461  and  _464
REMARK  192  A    between atoms: _467  and  _469
REMARK  193  A    between atoms: _469  and  _470
REMARK  194  A    between atoms: _469  and  _472
REMARK  195  A    between atoms: _472  and  _473
REMARK  196  A    between atoms: _476  and  _478
REMARK  197  A    between atoms: _478  and  _479
REMARK  198  A    between atoms: _478  and  _481
REMARK  199  A    between atoms: _481  and  _482
REMARK  200  A    between atoms: _486  and  _487
REMARK  201  A    between atoms: _492  and  _494
REMARK  202  A    between atoms: _494  and  _495
REMARK  203  A    between atoms: _494  and  _497
REMARK  204  A    between atoms: _500  and  _502
REMARK  205  A    between atoms: _502  and  _503
REMARK  206  A    between atoms: _502  and  _505
REMARK  207  A    between atoms: _505  and  _506
REMARK  208  A    between atoms: _511  and  _513
REMARK  209  A    between atoms: _513  and  _514
REMARK  210  A    between atoms: _513  and  _516
REMARK  211  A    between atoms: _516  and  _517
REMARK  212  A    between atoms: _520  and  _522
REMARK  213  A    between atoms: _522  and  _523
REMARK  214  A    between atoms: _522  and  _525
REMARK  215  A    between atoms: _525  and  _526
REMARK  216  A    between atoms: _529  and  _531
REMARK  217  A    between atoms: _531  and  _532
REMARK  218  A    between atoms: _534  and  _536
REMARK  219  A    between atoms: _536  and  _537
REMARK  220  A    between atoms: _536  and  _539
REMARK  221  A    between atoms: _539  and  _540
REMARK  222  A    between atoms: _540  and  _541
REMARK  223  A    between atoms: _541  and  _542
REMARK  224  A    between atoms: _551  and  _553
REMARK  225  A    between atoms: _553  and  _554
REMARK  226  A    between atoms: _553  and  _556
REMARK  227  A    between atoms: _556  and  _557
REMARK                            x       y       z     vdW  Elec       q    Type
REMARK                         _______ _______ _______ _____ _____    ______ ____
ROOT
ATOM      1  CA  VAL A   1      16.281   9.317  24.516  0.00  0.00    +0.133 C 
ENDROOT
BRANCH   1   2
ATOM      2  CB  VAL A   1      15.693  10.748  24.502  0.00  0.00    +0.023 C 
ATOM      3  CG2 VAL A   1      14.290  10.761  23.913  0.00  0.00    +0.002 C 
ATOM      4  CG1 VAL A   1      16.596  11.675  23.724  0.00  0.00    +0.002 C 
ENDBRANCH   1   2
BRANCH   1   5
ATOM      5  N   VAL A   1      16.405   8.780  23.182  0.00  0.00    -0.239 NA
ATOM      6  H   VAL A   1      15.556   8.408  22.710  0.00  0.00    +0.142 HD
ENDBRANCH   1   5
BRANCH   1   7
ATOM      7  C   VAL A   1      15.393   8.384  25.361  0.00  0.00    +0.224 C 
ATOM      8  O   VAL A   1      14.689   7.508  24.833  0.00  0.00    -0.287 OA
ENDBRANCH   1   7
TORSDOF 3
REMARK  Name = ../refined-set-2016/3a2o/3a2o_pocket.pdb
REMARK  227 active torsions:
REMARK  status: ('A' for Active; 'I' for Inactive)
REMARK    1  A    between atoms: _1  and  _3
REMARK    2  A    between atoms: _3  and  _4
REMARK    3  A    between atoms: _3  and  _6
REMARK    4  A    between atoms: _6  and  _7
REMARK    5  A    between atoms: _7  and  _8
REMARK    6  A    between atoms: _8  and  _9
REMARK    7  A    between atoms: _18  and  _20
REMARK    8  A    between atoms: _20  and  _21
REMARK    9  A    between atoms: _20  and  _23
REMARK   10  A    between atoms: _23  and  _24
REMARK   11  A    between atoms: _27  and  _29
REMARK   12  A    between atoms: _29  and  _30
REMARK   13  A    between atoms: _29  and  _32
REMARK   14  A    between atoms: _32  and  _33
REMARK   15  A    between atoms: _36  and  _38
REMARK   16  A    between atoms: _38  and  _39
REMARK   17  A    between atoms: _38  and  _41
REMARK   18  A    between atoms: _41  and  _42
REMARK   19  A    between atoms: _45  and  _47
REMARK   20  A    between atoms: _47  and  _48
REMARK   21  A    between atoms: _47  and  _50
REMARK   22  A    between atoms: _50  and  _51
REMARK   23  A    between atoms: _54  and  _56
REMARK   24  A    between atoms: _56  and  _57
REMARK   25  A    between atoms: _59  and  _61
REMARK   26  A    between atoms: _61  and  _62
REMARK   27  A    between atoms: _65  and  _67
REMARK   28  A    between atoms: _67  and  _68
REMARK   29  A    between atoms: _67  and  _70
REMARK   30  A    between atoms: _70  and  _71
REMARK   31  A    between atoms: _74  and  _76
REMARK   32  A    between atoms: _76  and  _77
REMARK   33  A    between atoms: _76  and  _79
REMARK   34  A    between atoms: _79  and  _80
REMARK   35  A    between atoms: _83  and  _85
REMARK   36  A    between atoms: _85  and  _86
REMARK   37  A    between atoms: _85  and  _88
REMARK   38  A    between atoms: _88  and  _89
REMARK   39  A    between atoms: _92  and  _94
REMARK   40  A    between atoms: _94  and  _95
REMARK   41  A    between atoms: _94  and  _97
REMARK   42  A    between atoms: _100  and  _102
REMARK   43  A    between atoms: _102  and  _103
REMARK   44  A    between atoms: _102  and  _105
REMARK   45  A    between atoms: _106  and  _107
REMARK   46  A    between atoms: _107  and  _108
REMARK   47  A    between atoms: _108  and  _109
REMARK   48  A    between atoms: _113  and  _115
REMARK   49  A    between atoms: _115  and  _116
REMARK   50  A    between atoms: _115  and  _118
REMARK   51  A    between atoms: _118  and  _119
REMARK   52  A    between atoms: _119  and  _120
REMARK   53  A    between atoms: _122  and  _124
REMARK   54  A    between atoms: _124  and  _125
REMARK   55  A    between atoms: _124  and  _127
REMARK   56  A    between atoms: _127  and  _128
REMARK   57  A    between atoms: _131  and  _133
REMARK   58  A    between atoms: _133  and  _134
REMARK   59  A    between atoms: _136  and  _138
REMARK   60  A    between atoms: _138  and  _139
REMARK   61  A    between atoms: _141  and  _143
REMARK   62  A    between atoms: _143  and  _144
REMARK   63  A    between atoms: _143  and  _146
REMARK   64  A    between atoms: _146  and  _147
REMARK   65  A    between atoms: _150  and  _152
REMARK   66  A    between atoms: _152  and  _153
REMARK   67  A    between atoms: _155  and  _157
REMARK   68  A    between atoms: _157  and  _158
REMARK   69  A    between atoms: _160  and  _162
REMARK   70  A    between atoms: _162  and  _163
REMARK   71  A    between atoms: _162  and  _165
REMARK   72  A    between atoms: _165  and  _166
REMARK   73  A    between atoms: _169  and  _171
REMARK   74  A    between atoms: _171  and  _172
REMARK   75  A    between atoms: _171  and  _174
REMARK   76  A    between atoms: _177  and  _179
REMARK   77  A    between atoms: _179  and  _180
REMARK   78  A    between atoms: _179  and  _182
REMARK   79  A    between atoms: _182  and  _183
REMARK   80  A    between atoms: _187  and  _188
REMARK   81  A    between atoms: _193  and  _195
REMARK   82  A    between atoms: _195  and  _196
REMARK   83  A    between atoms: _195  and  _198
REMARK   84  A    between atoms: _198  and  _199
REMARK   85  A    between atoms: _203  and  _204
REMARK   86  A    between atoms: _209  and  _211
REMARK   87  A    between atoms: _211  and  _212
REMARK   88  A    between atoms: _211  and  _214
REMARK   89  A    between atoms: _217  and  _219
REMARK   90  A    between atoms: _219  and  _220
REMARK   91  A    between atoms: _219  and  _222
REMARK   92  A    between atoms: _222  and  _223
REMARK   93  A    between atoms: _228  and  _230
REMARK   94  A    between atoms: _230  and  _231
REMARK   95  A    between atoms: _230  and  _233
REMARK   96  A    between atoms: _233  and  _234
REMARK   97  A    between atoms: _237  and  _239
REMARK   98  A    between atoms: _239  and  _240
REMARK   99  A    between atoms: _239  and  _242
REMARK  100  A    between atoms: _242  and  _243
REMARK  101  A    between atoms: _246  and  _248
REMARK  102  A    between atoms: _248  and  _249
REMARK  103  A    between atoms: _251  and  _253
REMARK  104  A    between atoms: _253  and  _254
REMARK  105  A    between atoms: _253  and  _256
REMARK  106  A    between atoms: _256  and  _257
REMARK  107  A    between atoms: _257  and  _258
REMARK  108  A    between atoms: _258  and  _259
REMARK  109  A    between atoms: _268  and  _270
REMARK  110  A    between atoms: _270  and  _271
REMARK  111  A    between atoms: _270  and  _273
REMARK  112  A    between atoms: _273  and  _274
REMARK  113  A    between atoms: _279  and  _281
REMARK  114  A    between atoms: _281  and  _282
REMARK  115  A    between atoms: _281  and  _284
REMARK  116  A    between atoms: _284  and  _285
REMARK  117  A    between atoms: _285  and  _286
REMARK  118  A    between atoms: _286  and  _287
REMARK  119  A    between atoms: _296  and  _298
REMARK  120  A    between atoms: _298  and  _299
REMARK  121  A    between atoms: _298  and  _301
REMARK  122  A    between atoms: _301  and  _302
REMARK  123  A    between atoms: _305  and  _307
REMARK  124  A    between atoms: _307  and  _308
REMARK  125  A    between atoms: _307  and  _310
REMARK  126  A    between atoms: _310  and  _311
REMARK  127  A    between atoms: _314  and  _316
REMARK  128  A    between atoms: _316  and  _317
REMARK  129  A    between atoms: _316  and  _319
REMARK  130  A    between atoms: _319  and  _320
REMARK  131  A    between atoms: _323  and  _325
REMARK  132  A    between atoms: _325  and  _326
REMARK  133  A    between atoms: _325  and  _328
REMARK  134  A    between atoms: _328  and  _329
REMARK  135  A    between atoms: _332  and  _334
REMARK  136  A    between atoms: _334  and  _335
REMARK  137  A    between atoms: _337  and  _339
REMARK  138  A    between atoms: _339  and  _340
REMARK  139  A    between atoms: _343  and  _345
REMARK  140  A    between atoms: _345  and  _346
REMARK  141  A    between atoms: _345  and  _348
REMARK  142  A    between atoms: _348  and  _349
REMARK  143  A    between atoms: _352  and  _354
REMARK  144  A    between atoms: _354  and  _355
REMARK  145  A    between atoms: _354  and  _357
REMARK  146  A    between atoms: _357  and  _358
REMARK  147  A    between atoms: _361  and  _363
REMARK  148  A    between atoms: _363  and  _364
REMARK  149  A    between atoms: _363  and  _366
REMARK  150  A    between atoms: _366  and  _367
REMARK  151  A    between atoms: _370  and  _372
REMARK  152  A    between atoms: _372  and  _373
REMARK  153  A    between atoms: _372  and  _375
REMARK  154  A    between atoms: _378  and  _380
REMARK  155  A    between atoms: _380  and  _381
REMARK  156  A    between atoms: _380  and  _383
REMARK  157  A    between atoms: _384  and  _385
REMARK  158  A    between atoms: _385  and  _386
REMARK  159  A    between atoms: _386  and  _387
REMARK  160  A    between atoms: _391  and  _393
REMARK  161  A    between atoms: _393  and  _394
REMARK  162  A    between atoms: _393  and  _396
REMARK  163  A    between atoms: _396  and  _397
REMARK  164  A    between atoms: _397  and  _398
REMARK  165  A    between atoms: _400  and  _402
REMARK  166  A    between atoms: _402  and  _403
REMARK  167  A    between atoms: _402  and  _405
REMARK  168  A    between atoms: _405  and  _406
REMARK  169  A    between atoms: _409  and  _411
REMARK  170  A    between atoms: _411  and  _412
REMARK  171  A    between atoms: _414  and  _416
REMARK  172  A    between atoms: _416  and  _417
REMARK  173  A    between atoms: _419  and  _421
REMARK  174  A    between atoms: _421  and  _422
REMARK  175  A    between atoms: _421  and  _424
REMARK  176  A    between atoms: _424  and  _425
REMARK  177  A    between atoms: _428  and  _430
REMARK  178  A    between atoms: _430  and  _431
REMARK  179  A    between atoms: _433  and  _435
REMARK  180  A    between atoms: _435  and  _436
REMARK  181  A    between atoms: _438  and  _440
REMARK  182  A    between atoms: _440  and  _441
REMARK  183  A    between atoms: _440  and  _443
REMARK  184  A    between atoms: _443  and  _444
REMARK  185  A    between atoms: _450  and  _452
REMARK  186  A    between atoms: _452  and  _453
REMARK  187  A    between atoms: _452  and  _455
REMARK  188  A    between atoms: _455  and  _456
REMARK  189  A    between atoms: _459  and  _461
REMARK  190  A    between atoms: _461  and  _462
REMARK  191  A    between atoms: _461  and  _464
REMARK  192  A    between atoms: _467  and  _469
REMARK  193  A    between atoms: _469  and  _470
REMARK  194  A    between atoms: _469  and  _472
REMARK  195  A    between atoms: _472  and  _473
REMARK  196  A    between atoms: _476  and  _478
REMARK  197  A    between atoms: _478  and  _479
REMARK  198  A    between atoms: _478  and  _481
REMARK  199  A    between atoms: _481  and  _482
REMARK  200  A    between atoms: _486  and  _487
REMARK  201  A    between atoms: _492  and  _494
REMARK  202  A    between atoms: _494  and  _495
REMARK  203  A    between atoms: _494  and  _497
REMARK  204  A    between atoms: _500  and  _502
REMARK  205  A    between atoms: _502  and  _503
REMARK  206  A    between atoms: _502  and  _505
REMARK  207  A    between atoms: _505  and  _506
REMARK  208  A    between atoms: _511  and  _513
REMARK  209  A    between atoms: _513  and  _514
REMARK  210  A    between atoms: _513  and  _516
REMARK  211  A    between atoms: _516  and  _517
REMARK  212  A    between atoms: _520  and  _522
REMARK  213  A    between atoms: _522  and  _523
REMARK  214  A    between atoms: _522  and  _525
REMARK  215  A    between atoms: _525  and  _526
REMARK  216  A    between atoms: _529  and  _531
REMARK  217  A    between atoms: _531  and  _532
REMARK  218  A    between atoms: _534  and  _536
REMARK  219  A    between atoms: _536  and  _537
REMARK  220  A    between atoms: _536  and  _539
REMARK  221  A    between atoms: _539  and  _540
REMARK  222  A    between atoms: _540  and  _541
REMARK  223  A    between atoms: _541  and  _542
REMARK  224  A    between atoms: _551  and  _553
REMARK  225  A    between atoms: _553  and  _554
REMARK  226  A    between atoms: _553  and  _556
REMARK  227  A    between atoms: _556  and  _557
REMARK                            x       y       z     vdW  Elec       q    Type
REMARK                         _______ _______ _______ _____ _____    ______ ____
ROOT
ATOM      1  CA  LEU A   1      13.317  13.117  27.956  0.00  0.00    +0.133 C 
ENDROOT
BRANCH   1   2
ATOM      2  N   LEU A   1      12.478  14.017  28.734  0.00  0.00    -0.239 NA
ATOM      3  H   LEU A   1      12.373  14.998  28.406  0.00  0.00    +0.142 HD
ENDBRANCH   1   2
BRANCH   1   4
ATOM      4  C   LEU A   1      14.769  13.299  28.413  0.00  0.00    +0.224 C 
ATOM      5  O   LEU A   1      15.192  14.423  28.652  0.00  0.00    -0.287 OA
ENDBRANCH   1   4
BRANCH   1   6
ATOM      6  CB  LEU A   1      13.190  13.398  26.486  0.00  0.00    +0.025 C 
BRANCH   6   7
ATOM      7  CG  LEU A   1      11.768  13.496  25.935  0.00  0.00    +0.002 C 
ATOM      8  CD2 LEU A   1      10.954  12.249  26.235  0.00  0.00    +0.000 C 
ATOM      9  CD1 LEU A   1      11.791  13.798  24.448  0.00  0.00    +0.000 C 
ENDBRANCH   6   7
ENDBRANCH   1   6
TORSDOF 4
REMARK  Name = ../refined-set-2016/3a2o/3a2o_pocket.pdb
REMARK  227 active torsions:
REMARK  status: ('A' for Active; 'I' for Inactive)
REMARK    1  A    between atoms: _1  and  _3
REMARK    2  A    between atoms: _3  and  _4
REMARK    3  A    between atoms: _3  and  _6
REMARK    4  A    between atoms: _6  and  _7
REMARK    5  A    between atoms: _7  and  _8
REMARK    6  A    between atoms: _8  and  _9
REMARK    7  A    between atoms: _18  and  _20
REMARK    8  A    between atoms: _20  and  _21
REMARK    9  A    between atoms: _20  and  _23
REMARK   10  A    between atoms: _23  and  _24
REMARK   11  A    between atoms: _27  and  _29
REMARK   12  A    between atoms: _29  and  _30
REMARK   13  A    between atoms: _29  and  _32
REMARK   14  A    between atoms: _32  and  _33
REMARK   15  A    between atoms: _36  and  _38
REMARK   16  A    between atoms: _38  and  _39
REMARK   17  A    between atoms: _38  and  _41
REMARK   18  A    between atoms: _41  and  _42
REMARK   19  A    between atoms: _45  and  _47
REMARK   20  A    between atoms: _47  and  _48
REMARK   21  A    between atoms: _47  and  _50
REMARK   22  A    between atoms: _50  and  _51
REMARK   23  A    between atoms: _54  and  _56
REMARK   24  A    between atoms: _56  and  _57
REMARK   25  A    between atoms: _59  and  _61
REMARK   26  A    between atoms: _61  and  _62
REMARK   27  A    between atoms: _65  and  _67
REMARK   28  A    between atoms: _67  and  _68
REMARK   29  A    between atoms: _67  and  _70
REMARK   30  A    between atoms: _70  and  _71
REMARK   31  A    between atoms: _74  and  _76
REMARK   32  A    between atoms: _76  and  _77
REMARK   33  A    between atoms: _76  and  _79
REMARK   34  A    between atoms: _79  and  _80
REMARK   35  A    between atoms: _83  and  _85
REMARK   36  A    between atoms: _85  and  _86
REMARK   37  A    between atoms: _85  and  _88
REMARK   38  A    between atoms: _88  and  _89
REMARK   39  A    between atoms: _92  and  _94
REMARK   40  A    between atoms: _94  and  _95
REMARK   41  A    between atoms: _94  and  _97
REMARK   42  A    between atoms: _100  and  _102
REMARK   43  A    between atoms: _102  and  _103
REMARK   44  A    between atoms: _102  and  _105
REMARK   45  A    between atoms: _106  and  _107
REMARK   46  A    between atoms: _107  and  _108
REMARK   47  A    between atoms: _108  and  _109
REMARK   48  A    between atoms: _113  and  _115
REMARK   49  A    between atoms: _115  and  _116
REMARK   50  A    between atoms: _115  and  _118
REMARK   51  A    between atoms: _118  and  _119
REMARK   52  A    between atoms: _119  and  _120
REMARK   53  A    between atoms: _122  and  _124
REMARK   54  A    between atoms: _124  and  _125
REMARK   55  A    between atoms: _124  and  _127
REMARK   56  A    between atoms: _127  and  _128
REMARK   57  A    between atoms: _131  and  _133
REMARK   58  A    between atoms: _133  and  _134
REMARK   59  A    between atoms: _136  and  _138
REMARK   60  A    between atoms: _138  and  _139
REMARK   61  A    between atoms: _141  and  _143
REMARK   62  A    between atoms: _143  and  _144
REMARK   63  A    between atoms: _143  and  _146
REMARK   64  A    between atoms: _146  and  _147
REMARK   65  A    between atoms: _150  and  _152
REMARK   66  A    between atoms: _152  and  _153
REMARK   67  A    between atoms: _155  and  _157
REMARK   68  A    between atoms: _157  and  _158
REMARK   69  A    between atoms: _160  and  _162
REMARK   70  A    between atoms: _162  and  _163
REMARK   71  A    between atoms: _162  and  _165
REMARK   72  A    between atoms: _165  and  _166
REMARK   73  A    between atoms: _169  and  _171
REMARK   74  A    between atoms: _171  and  _172
REMARK   75  A    between atoms: _171  and  _174
REMARK   76  A    between atoms: _177  and  _179
REMARK   77  A    between atoms: _179  and  _180
REMARK   78  A    between atoms: _179  and  _182
REMARK   79  A    between atoms: _182  and  _183
REMARK   80  A    between atoms: _187  and  _188
REMARK   81  A    between atoms: _193  and  _195
REMARK   82  A    between atoms: _195  and  _196
REMARK   83  A    between atoms: _195  and  _198
REMARK   84  A    between atoms: _198  and  _199
REMARK   85  A    between atoms: _203  and  _204
REMARK   86  A    between atoms: _209  and  _211
REMARK   87  A    between atoms: _211  and  _212
REMARK   88  A    between atoms: _211  and  _214
REMARK   89  A    between atoms: _217  and  _219
REMARK   90  A    between atoms: _219  and  _220
REMARK   91  A    between atoms: _219  and  _222
REMARK   92  A    between atoms: _222  and  _223
REMARK   93  A    between atoms: _228  and  _230
REMARK   94  A    between atoms: _230  and  _231
REMARK   95  A    between atoms: _230  and  _233
REMARK   96  A    between atoms: _233  and  _234
REMARK   97  A    between atoms: _237  and  _239
REMARK   98  A    between atoms: _239  and  _240
REMARK   99  A    between atoms: _239  and  _242
REMARK  100  A    between atoms: _242  and  _243
REMARK  101  A    between atoms: _246  and  _248
REMARK  102  A    between atoms: _248  and  _249
REMARK  103  A    between atoms: _251  and  _253
REMARK  104  A    between atoms: _253  and  _254
REMARK  105  A    between atoms: _253  and  _256
REMARK  106  A    between atoms: _256  and  _257
REMARK  107  A    between atoms: _257  and  _258
REMARK  108  A    between atoms: _258  and  _259
REMARK  109  A    between atoms: _268  and  _270
REMARK  110  A    between atoms: _270  and  _271
REMARK  111  A    between atoms: _270  and  _273
REMARK  112  A    between atoms: _273  and  _274
REMARK  113  A    between atoms: _279  and  _281
REMARK  114  A    between atoms: _281  and  _282
REMARK  115  A    between atoms: _281  and  _284
REMARK  116  A    between atoms: _284  and  _285
REMARK  117  A    between atoms: _285  and  _286
REMARK  118  A    between atoms: _286  and  _287
REMARK  119  A    between atoms: _296  and  _298
REMARK  120  A    between atoms: _298  and  _299
REMARK  121  A    between atoms: _298  and  _301
REMARK  122  A    between atoms: _301  and  _302
REMARK  123  A    between atoms: _305  and  _307
REMARK  124  A    between atoms: _307  and  _308
REMARK  125  A    between atoms: _307  and  _310
REMARK  126  A    between atoms: _310  and  _311
REMARK  127  A    between atoms: _314  and  _316
REMARK  128  A    between atoms: _316  and  _317
REMARK  129  A    between atoms: _316  and  _319
REMARK  130  A    between atoms: _319  and  _320
REMARK  131  A    between atoms: _323  and  _325
REMARK  132  A    between atoms: _325  and  _326
REMARK  133  A    between atoms: _325  and  _328
REMARK  134  A    between atoms: _328  and  _329
REMARK  135  A    between atoms: _332  and  _334
REMARK  136  A    between atoms: _334  and  _335
REMARK  137  A    between atoms: _337  and  _339
REMARK  138  A    between atoms: _339  and  _340
REMARK  139  A    between atoms: _343  and  _345
REMARK  140  A    between atoms: _345  and  _346
REMARK  141  A    between atoms: _345  and  _348
REMARK  142  A    between atoms: _348  and  _349
REMARK  143  A    between atoms: _352  and  _354
REMARK  144  A    between atoms: _354  and  _355
REMARK  145  A    between atoms: _354  and  _357
REMARK  146  A    between atoms: _357  and  _358
REMARK  147  A    between atoms: _361  and  _363
REMARK  148  A    between atoms: _363  and  _364
REMARK  149  A    between atoms: _363  and  _366
REMARK  150  A    between atoms: _366  and  _367
REMARK  151  A    between atoms: _370  and  _372
REMARK  152  A    between atoms: _372  and  _373
REMARK  153  A    between atoms: _372  and  _375
REMARK  154  A    between atoms: _378  and  _380
REMARK  155  A    between atoms: _380  and  _381
REMARK  156  A    between atoms: _380  and  _383
REMARK  157  A    between atoms: _384  and  _385
REMARK  158  A    between atoms: _385  and  _386
REMARK  159  A    between atoms: _386  and  _387
REMARK  160  A    between atoms: _391  and  _393
REMARK  161  A    between atoms: _393  and  _394
REMARK  162  A    between atoms: _393  and  _396
REMARK  163  A    between atoms: _396  and  _397
REMARK  164  A    between atoms: _397  and  _398
REMARK  165  A    between atoms: _400  and  _402
REMARK  166  A    between atoms: _402  and  _403
REMARK  167  A    between atoms: _402  and  _405
REMARK  168  A    between atoms: _405  and  _406
REMARK  169  A    between atoms: _409  and  _411
REMARK  170  A    between atoms: _411  and  _412
REMARK  171  A    between atoms: _414  and  _416
REMARK  172  A    between atoms: _416  and  _417
REMARK  173  A    between atoms: _419  and  _421
REMARK  174  A    between atoms: _421  and  _422
REMARK  175  A    between atoms: _421  and  _424
REMARK  176  A    between atoms: _424  and  _425
REMARK  177  A    between atoms: _428  and  _430
REMARK  178  A    between atoms: _430  and  _431
REMARK  179  A    between atoms: _433  and  _435
REMARK  180  A    between atoms: _435  and  _436
REMARK  181  A    between atoms: _438  and  _440
REMARK  182  A    between atoms: _440  and  _441
REMARK  183  A    between atoms: _440  and  _443
REMARK  184  A    between atoms: _443  and  _444
REMARK  185  A    between atoms: _450  and  _452
REMARK  186  A    between atoms: _452  and  _453
REMARK  187  A    between atoms: _452  and  _455
REMARK  188  A    between atoms: _455  and  _456
REMARK  189  A    between atoms: _459  and  _461
REMARK  190  A    between atoms: _461  and  _462
REMARK  191  A    between atoms: _461  and  _464
REMARK  192  A    between atoms: _467  and  _469
REMARK  193  A    between atoms: _469  and  _470
REMARK  194  A    between atoms: _469  and  _472
REMARK  195  A    between atoms: _472  and  _473
REMARK  196  A    between atoms: _476  and  _478
REMARK  197  A    between atoms: _478  and  _479
REMARK  198  A    between atoms: _478  and  _481
REMARK  199  A    between atoms: _481  and  _482
REMARK  200  A    between atoms: _486  and  _487
REMARK  201  A    between atoms: _492  and  _494
REMARK  202  A    between atoms: _494  and  _495
REMARK  203  A    between atoms: _494  and  _497
REMARK  204  A    between atoms: _500  and  _502
REMARK  205  A    between atoms: _502  and  _503
REMARK  206  A    between atoms: _502  and  _505
REMARK  207  A    between atoms: _505  and  _506
REMARK  208  A    between atoms: _511  and  _513
REMARK  209  A    between atoms: _513  and  _514
REMARK  210  A    between atoms: _513  and  _516
REMARK  211  A    between atoms: _516  and  _517
REMARK  212  A    between atoms: _520  and  _522
REMARK  213  A    between atoms: _522  and  _523
REMARK  214  A    between atoms: _522  and  _525
REMARK  215  A    between atoms: _525  and  _526
REMARK  216  A    between atoms: _529  and  _531
REMARK  217  A    between atoms: _531  and  _532
REMARK  218  A    between atoms: _534  and  _536
REMARK  219  A    between atoms: _536  and  _537
REMARK  220  A    between atoms: _536  and  _539
REMARK  221  A    between atoms: _539  and  _540
REMARK  222  A    between atoms: _540  and  _541
REMARK  223  A    between atoms: _541  and  _542
REMARK  224  A    between atoms: _551  and  _553
REMARK  225  A    between atoms: _553  and  _554
REMARK  226  A    between atoms: _553  and  _556
REMARK  227  A    between atoms: _556  and  _557
REMARK                            x       y       z     vdW  Elec       q    Type
REMARK                         _______ _______ _______ _____ _____    ______ ____
ROOT
ATOM      1  C   ILE A   5      14.582  22.071  27.192  0.00  0.00    +0.241 C 
ATOM      2  O   ILE A   5      14.144  20.942  27.447  0.00  0.00    -0.273 OA
ATOM      3  N   ILE A   6      13.927  23.189  27.427  0.00  0.00    -0.297 N 
ATOM      4  H   ILE A   6      14.401  24.098  27.254  0.00  0.00    +0.150 HD
ENDROOT
BRANCH   1   5
ATOM      5  CA  ILE A   5      15.938  22.200  26.507  0.00  0.00    +0.149 C 
BRANCH   5   8
ATOM      6  C   ASN A   4      18.041  22.149  27.713  0.00  0.00    +0.241 C 
ATOM      7  O   ASN A   4      18.256  23.354  27.710  0.00  0.00    -0.273 OA
ATOM      8  N   ILE A   5      16.980  21.520  27.276  0.00  0.00    -0.297 N 
ATOM      9  H   ILE A   5      16.874  20.506  27.482  0.00  0.00    +0.150 HD
BRANCH   6  10
ATOM     10  CA  ASN A   4      19.095  21.221  28.360  0.00  0.00    +0.158 C 
BRANCH  10  12
ATOM     11  C   VAL A   3      20.683  21.104  26.574  0.00  0.00    +0.241 C 
ATOM     12  N   ASN A   4      20.393  21.512  27.786  0.00  0.00    -0.297 N 
ATOM     13  H   ASN A   4      21.096  22.045  28.336  0.00  0.00    +0.150 HD
ATOM     14  O   VAL A   3      19.921  20.395  25.906  0.00  0.00    -0.273 OA
BRANCH  11  15
ATOM     15  CA  VAL A   3      22.036  21.594  26.044  0.00  0.00    +0.149 C 
BRANCH  15  18
ATOM     16  C   PRO A   2      23.587  20.435  24.584  0.00  0.00    +0.241 C 
ATOM     17  O   PRO A   2      24.590  20.986  25.050  0.00  0.00    -0.273 OA
ATOM     18  N   VAL A   3      22.332  20.679  24.936  0.00  0.00    -0.297 N 
ATOM     19  H   VAL A   3      21.553  20.219  24.423  0.00  0.00    +0.150 HD
BRANCH  16  23
ATOM     20  C   THR A   1      22.415  17.542  24.149  0.00  0.00    +0.244 C 
ATOM     21  O   THR A   1      23.080  17.405  25.175  0.00  0.00    -0.273 OA
ATOM     22  N   PRO A   2      22.655  18.524  23.274  0.00  0.00    -0.272 N 
ATOM     23  CA  PRO A   2      23.762  19.430  23.458  0.00  0.00    +0.152 C 
ATOM     24  CB  PRO A   2      23.867  20.220  22.118  0.00  0.00    +0.031 C 
ATOM     25  CG  PRO A   2      22.485  20.223  21.575  0.00  0.00    +0.024 C 
ATOM     26  CD  PRO A   2      21.903  18.859  22.034  0.00  0.00    +0.094 C 
BRANCH  20  27
ATOM     27  CA  THR A   1      21.243  16.615  23.929  0.00  0.00    +0.172 C 
BRANCH  27  28
ATOM     28  N   THR A   1      21.451  15.284  24.460  0.00  0.00    -0.236 NA
ATOM     29  H   THR A   1      20.972  14.974  25.329  0.00  0.00    +0.142 HD
ENDBRANCH  27  28
BRANCH  27  30
ATOM     30  CB  THR A   1      19.967  17.159  24.617  0.00  0.00    +0.135 C 
ATOM     31  CG2 THR A   1      20.086  17.272  26.120  0.00  0.00    +0.034 C 
BRANCH  30  32
ATOM     32  OG1 THR A   1      19.693  18.403  24.005  0.00  0.00    -0.383 OA
ATOM     33  HG1 THR A   1      20.461  19.013  24.142  0.00  0.00    +0.210 HD
ENDBRANCH  30  32
ENDBRANCH  27  30
ENDBRANCH  20  27
ENDBRANCH  16  23
ENDBRANCH  15  18
BRANCH  15  34
ATOM     34  CB  VAL A   3      21.981  23.074  25.642  0.00  0.00    +0.027 C 
ATOM     35  CG2 VAL A   3      21.762  24.084  26.748  0.00  0.00    +0.002 C 
ATOM     36  CG1 VAL A   3      20.860  23.265  24.568  0.00  0.00    +0.002 C 
ENDBRANCH  15  34
ENDBRANCH  11  15
ENDBRANCH  10  12
BRANCH  10  37
ATOM     37  CB  ASN A   4      19.108  21.456  29.855  0.00  0.00    +0.114 C 
BRANCH  37  38
ATOM     38  CG  ASN A   4      20.049  20.543  30.599  0.00  0.00    +0.222 C 
ATOM     39  ND2 ASN A   4      20.643  21.035  31.671  0.00  0.00    -0.329 N 
ATOM     40 HD21 ASN A   4      21.258  20.428  32.249  0.00  0.00    +0.145 HD
ATOM     41 HD22 ASN A   4      20.496  22.030  31.937  0.00  0.00    +0.145 HD
ATOM     42  OD1 ASN A   4      20.193  19.379  30.248  0.00  0.00    -0.275 OA
ENDBRANCH  37  38
ENDBRANCH  10  37
ENDBRANCH   6  10
ENDBRANCH   5   8
BRANCH   5  43
ATOM     43  CB  ILE A   5      15.888  21.583  25.098  0.00  0.00    +0.027 C 
ATOM     44  CG2 ILE A   5      14.631  21.972  24.360  0.00  0.00    +0.002 C 
BRANCH  43  45
ATOM     45  CG1 ILE A   5      17.166  21.961  24.336  0.00  0.00    +0.002 C 
ATOM     46  CD1 ILE A   5      17.382  21.174  23.083  0.00  0.00    +0.000 C 
ENDBRANCH  43  45
ENDBRANCH   5  43
ENDBRANCH   1   5
BRANCH   3  47
ATOM     47  CA  ILE A   6      12.553  23.189  27.924  0.00  0.00    +0.149 C 
BRANCH  47  48
ATOM     48  C   ILE A   6      11.667  23.441  26.716  0.00  0.00    +0.241 C 
ATOM     49  N   GLY A   7      10.927  22.395  26.321  0.00  0.00    -0.295 N 
ATOM     50  H   GLY A   7      10.962  21.516  26.875  0.00  0.00    +0.150 HD
ATOM     51  O   ILE A   6      11.661  24.516  26.130  0.00  0.00    -0.273 OA
BRANCH  49  52
ATOM     52  CA  GLY A   7      10.089  22.451  25.158  0.00  0.00    +0.176 C 
BRANCH  52  53
ATOM     53  C   GLY A   7       8.646  22.755  25.498  0.00  0.00    +0.243 C 
ATOM     54  O   GLY A   7       8.264  23.030  26.635  0.00  0.00    -0.273 OA
ATOM     55  N   ARG A   8       7.809  22.719  24.444  0.00  0.00    -0.297 N 
ATOM     56  H   ARG A   8       8.136  22.324  23.539  0.00  0.00    +0.150 HD
BRANCH  55  57
ATOM     57  CA  ARG A   8       6.456  23.226  24.560  0.00  0.00    +0.149 C 
BRANCH  57  58
ATOM     58  C   ARG A   8       5.617  22.453  25.568  0.00  0.00    +0.241 C 
ATOM     59  O   ARG A   8       4.696  23.046  26.162  0.00  0.00    -0.273 OA
ATOM     60  N   ASN A   9       5.880  21.178  25.788  0.00  0.00    -0.298 N 
ATOM     61  H   ASN A   9       6.650  20.710  25.269  0.00  0.00    +0.150 HD
BRANCH  60  62
ATOM     62  CA  ASN A   9       5.096  20.430  26.752  0.00  0.00    +0.146 C 
BRANCH  62  63
ATOM     63  C   ASN A   9       5.132  21.078  28.139  0.00  0.00    +0.227 C 
ATOM     64  O   ASN A   9       4.149  21.008  28.872  0.00  0.00    -0.286 OA
ENDBRANCH  62  63
BRANCH  62  65
ATOM     65  CB  ASN A   9       5.517  18.964  26.816  0.00  0.00    +0.112 C 
BRANCH  65  66
ATOM     66  CG  ASN A   9       6.845  18.746  27.504  0.00  0.00    +0.222 C 
ATOM     67  ND2 ASN A   9       6.837  17.906  28.524  0.00  0.00    -0.329 N 
ATOM     68 HD21 ASN A   9       7.713  17.724  29.054  0.00  0.00    +0.145 HD
ATOM     69 HD22 ASN A   9       5.955  17.427  28.796  0.00  0.00    +0.145 HD
ATOM     70  OD1 ASN A   9       7.872  19.355  27.124  0.00  0.00    -0.275 OA
ENDBRANCH  65  66
ENDBRANCH  62  65
ENDBRANCH  60  62
ENDBRANCH  57  58
BRANCH  57  71
ATOM     71  CB  ARG A   8       5.750  23.273  23.205  0.00  0.00    +0.033 C 
BRANCH  71  72
ATOM     72  CG  ARG A   8       6.376  24.277  22.253  0.00  0.00    +0.045 C 
BRANCH  72  73
ATOM     73  CD  ARG A   8       5.603  24.444  20.950  0.00  0.00    +0.174 C 
BRANCH  73  74
ATOM     74  NE  ARG A   8       5.558  23.216  20.158  0.00  0.00    -0.265 N 
ATOM     75  CZ  ARG A   8       4.622  22.303  20.185  0.00  0.00    +0.342 C 
ATOM     76  NH2 ARG A   8       3.490  22.454  20.898  0.00  0.00    -0.292 N 
ATOM     77 HH21 ARG A   8       3.337  23.320  21.453  0.00  0.00    +0.255 HD
ATOM     78 HH22 ARG A   8       2.769  21.705  20.894  0.00  0.00    +0.255 HD
ATOM     79  NH1 ARG A   8       4.794  21.201  19.488  0.00  0.00    -0.292 N 
ATOM     80 HH11 ARG A   8       4.063  20.462  19.495  0.00  0.00    +0.255 HD
ATOM     81 HH12 ARG A   8       5.661  21.069  18.930  0.00  0.00    +0.255 HD
ATOM     82  HE  ARG A   8       6.352  23.052  19.506  0.00  0.00    +0.259 HD
ENDBRANCH  73  74
ENDBRANCH  72  73
ENDBRANCH  71  72
ENDBRANCH  57  71
ENDBRANCH  55  57
ENDBRANCH  52  53
ENDBRANCH  49  52
ENDBRANCH  47  48
BRANCH  47  83
ATOM     83  CB  ILE A   6      12.327  24.262  28.996  0.00  0.00    +0.027 C 
ATOM     84  CG2 ILE A   6      10.883  24.174  29.488  0.00  0.00    +0.002 C 
BRANCH  83  85
ATOM     85  CG1 ILE A   6      13.357  24.148  30.121  0.00  0.00    +0.002 C 
ATOM     86  CD1 ILE A   6      13.476  22.798  30.740  0.00  0.00    +0.000 C 
ENDBRANCH  83  85
ENDBRANCH  47  83
ENDBRANCH   3  47
TORSDOF 32
REMARK  Name = ../refined-set-2016/3a2o/3a2o_pocket.pdb
REMARK  227 active torsions:
REMARK  status: ('A' for Active; 'I' for Inactive)
REMARK    1  A    between atoms: _1  and  _3
REMARK    2  A    between atoms: _3  and  _4
REMARK    3  A    between atoms: _3  and  _6
REMARK    4  A    between atoms: _6  and  _7
REMARK    5  A    between atoms: _7  and  _8
REMARK    6  A    between atoms: _8  and  _9
REMARK    7  A    between atoms: _18  and  _20
REMARK    8  A    between atoms: _20  and  _21
REMARK    9  A    between atoms: _20  and  _23
REMARK   10  A    between atoms: _23  and  _24
REMARK   11  A    between atoms: _27  and  _29
REMARK   12  A    between atoms: _29  and  _30
REMARK   13  A    between atoms: _29  and  _32
REMARK   14  A    between atoms: _32  and  _33
REMARK   15  A    between atoms: _36  and  _38
REMARK   16  A    between atoms: _38  and  _39
REMARK   17  A    between atoms: _38  and  _41
REMARK   18  A    between atoms: _41  and  _42
REMARK   19  A    between atoms: _45  and  _47
REMARK   20  A    between atoms: _47  and  _48
REMARK   21  A    between atoms: _47  and  _50
REMARK   22  A    between atoms: _50  and  _51
REMARK   23  A    between atoms: _54  and  _56
REMARK   24  A    between atoms: _56  and  _57
REMARK   25  A    between atoms: _59  and  _61
REMARK   26  A    between atoms: _61  and  _62
REMARK   27  A    between atoms: _65  and  _67
REMARK   28  A    between atoms: _67  and  _68
REMARK   29  A    between atoms: _67  and  _70
REMARK   30  A    between atoms: _70  and  _71
REMARK   31  A    between atoms: _74  and  _76
REMARK   32  A    between atoms: _76  and  _77
REMARK   33  A    between atoms: _76  and  _79
REMARK   34  A    between atoms: _79  and  _80
REMARK   35  A    between atoms: _83  and  _85
REMARK   36  A    between atoms: _85  and  _86
REMARK   37  A    between atoms: _85  and  _88
REMARK   38  A    between atoms: _88  and  _89
REMARK   39  A    between atoms: _92  and  _94
REMARK   40  A    between atoms: _94  and  _95
REMARK   41  A    between atoms: _94  and  _97
REMARK   42  A    between atoms: _100  and  _102
REMARK   43  A    between atoms: _102  and  _103
REMARK   44  A    between atoms: _102  and  _105
REMARK   45  A    between atoms: _106  and  _107
REMARK   46  A    between atoms: _107  and  _108
REMARK   47  A    between atoms: _108  and  _109
REMARK   48  A    between atoms: _113  and  _115
REMARK   49  A    between atoms: _115  and  _116
REMARK   50  A    between atoms: _115  and  _118
REMARK   51  A    between atoms: _118  and  _119
REMARK   52  A    between atoms: _119  and  _120
REMARK   53  A    between atoms: _122  and  _124
REMARK   54  A    between atoms: _124  and  _125
REMARK   55  A    between atoms: _124  and  _127
REMARK   56  A    between atoms: _127  and  _128
REMARK   57  A    between atoms: _131  and  _133
REMARK   58  A    between atoms: _133  and  _134
REMARK   59  A    between atoms: _136  and  _138
REMARK   60  A    between atoms: _138  and  _139
REMARK   61  A    between atoms: _141  and  _143
REMARK   62  A    between atoms: _143  and  _144
REMARK   63  A    between atoms: _143  and  _146
REMARK   64  A    between atoms: _146  and  _147
REMARK   65  A    between atoms: _150  and  _152
REMARK   66  A    between atoms: _152  and  _153
REMARK   67  A    between atoms: _155  and  _157
REMARK   68  A    between atoms: _157  and  _158
REMARK   69  A    between atoms: _160  and  _162
REMARK   70  A    between atoms: _162  and  _163
REMARK   71  A    between atoms: _162  and  _165
REMARK   72  A    between atoms: _165  and  _166
REMARK   73  A    between atoms: _169  and  _171
REMARK   74  A    between atoms: _171  and  _172
REMARK   75  A    between atoms: _171  and  _174
REMARK   76  A    between atoms: _177  and  _179
REMARK   77  A    between atoms: _179  and  _180
REMARK   78  A    between atoms: _179  and  _182
REMARK   79  A    between atoms: _182  and  _183
REMARK   80  A    between atoms: _187  and  _188
REMARK   81  A    between atoms: _193  and  _195
REMARK   82  A    between atoms: _195  and  _196
REMARK   83  A    between atoms: _195  and  _198
REMARK   84  A    between atoms: _198  and  _199
REMARK   85  A    between atoms: _203  and  _204
REMARK   86  A    between atoms: _209  and  _211
REMARK   87  A    between atoms: _211  and  _212
REMARK   88  A    between atoms: _211  and  _214
REMARK   89  A    between atoms: _217  and  _219
REMARK   90  A    between atoms: _219  and  _220
REMARK   91  A    between atoms: _219  and  _222
REMARK   92  A    between atoms: _222  and  _223
REMARK   93  A    between atoms: _228  and  _230
REMARK   94  A    between atoms: _230  and  _231
REMARK   95  A    between atoms: _230  and  _233
REMARK   96  A    between atoms: _233  and  _234
REMARK   97  A    between atoms: _237  and  _239
REMARK   98  A    between atoms: _239  and  _240
REMARK   99  A    between atoms: _239  and  _242
REMARK  100  A    between atoms: _242  and  _243
REMARK  101  A    between atoms: _246  and  _248
REMARK  102  A    between atoms: _248  and  _249
REMARK  103  A    between atoms: _251  and  _253
REMARK  104  A    between atoms: _253  and  _254
REMARK  105  A    between atoms: _253  and  _256
REMARK  106  A    between atoms: _256  and  _257
REMARK  107  A    between atoms: _257  and  _258
REMARK  108  A    between atoms: _258  and  _259
REMARK  109  A    between atoms: _268  and  _270
REMARK  110  A    between atoms: _270  and  _271
REMARK  111  A    between atoms: _270  and  _273
REMARK  112  A    between atoms: _273  and  _274
REMARK  113  A    between atoms: _279  and  _281
REMARK  114  A    between atoms: _281  and  _282
REMARK  115  A    between atoms: _281  and  _284
REMARK  116  A    between atoms: _284  and  _285
REMARK  117  A    between atoms: _285  and  _286
REMARK  118  A    between atoms: _286  and  _287
REMARK  119  A    between atoms: _296  and  _298
REMARK  120  A    between atoms: _298  and  _299
REMARK  121  A    between atoms: _298  and  _301
REMARK  122  A    between atoms: _301  and  _302
REMARK  123  A    between atoms: _305  and  _307
REMARK  124  A    between atoms: _307  and  _308
REMARK  125  A    between atoms: _307  and  _310
REMARK  126  A    between atoms: _310  and  _311
REMARK  127  A    between atoms: _314  and  _316
REMARK  128  A    between atoms: _316  and  _317
REMARK  129  A    between atoms: _316  and  _319
REMARK  130  A    between atoms: _319  and  _320
REMARK  131  A    between atoms: _323  and  _325
REMARK  132  A    between atoms: _325  and  _326
REMARK  133  A    between atoms: _325  and  _328
REMARK  134  A    between atoms: _328  and  _329
REMARK  135  A    between atoms: _332  and  _334
REMARK  136  A    between atoms: _334  and  _335
REMARK  137  A    between atoms: _337  and  _339
REMARK  138  A    between atoms: _339  and  _340
REMARK  139  A    between atoms: _343  and  _345
REMARK  140  A    between atoms: _345  and  _346
REMARK  141  A    between atoms: _345  and  _348
REMARK  142  A    between atoms: _348  and  _349
REMARK  143  A    between atoms: _352  and  _354
REMARK  144  A    between atoms: _354  and  _355
REMARK  145  A    between atoms: _354  and  _357
REMARK  146  A    between atoms: _357  and  _358
REMARK  147  A    between atoms: _361  and  _363
REMARK  148  A    between atoms: _363  and  _364
REMARK  149  A    between atoms: _363  and  _366
REMARK  150  A    between atoms: _366  and  _367
REMARK  151  A    between atoms: _370  and  _372
REMARK  152  A    between atoms: _372  and  _373
REMARK  153  A    between atoms: _372  and  _375
REMARK  154  A    between atoms: _378  and  _380
REMARK  155  A    between atoms: _380  and  _381
REMARK  156  A    between atoms: _380  and  _383
REMARK  157  A    between atoms: _384  and  _385
REMARK  158  A    between atoms: _385  and  _386
REMARK  159  A    between atoms: _386  and  _387
REMARK  160  A    between atoms: _391  and  _393
REMARK  161  A    between atoms: _393  and  _394
REMARK  162  A    between atoms: _393  and  _396
REMARK  163  A    between atoms: _396  and  _397
REMARK  164  A    between atoms: _397  and  _398
REMARK  165  A    between atoms: _400  and  _402
REMARK  166  A    between atoms: _402  and  _403
REMARK  167  A    between atoms: _402  and  _405
REMARK  168  A    between atoms: _405  and  _406
REMARK  169  A    between atoms: _409  and  _411
REMARK  170  A    between atoms: _411  and  _412
REMARK  171  A    between atoms: _414  and  _416
REMARK  172  A    between atoms: _416  and  _417
REMARK  173  A    between atoms: _419  and  _421
REMARK  174  A    between atoms: _421  and  _422
REMARK  175  A    between atoms: _421  and  _424
REMARK  176  A    between atoms: _424  and  _425
REMARK  177  A    between atoms: _428  and  _430
REMARK  178  A    between atoms: _430  and  _431
REMARK  179  A    between atoms: _433  and  _435
REMARK  180  A    between atoms: _435  and  _436
REMARK  181  A    between atoms: _438  and  _440
REMARK  182  A    between atoms: _440  and  _441
REMARK  183  A    between atoms: _440  and  _443
REMARK  184  A    between atoms: _443  and  _444
REMARK  185  A    between atoms: _450  and  _452
REMARK  186  A    between atoms: _452  and  _453
REMARK  187  A    between atoms: _452  and  _455
REMARK  188  A    between atoms: _455  and  _456
REMARK  189  A    between atoms: _459  and  _461
REMARK  190  A    between atoms: _461  and  _462
REMARK  191  A    between atoms: _461  and  _464
REMARK  192  A    between atoms: _467  and  _469
REMARK  193  A    between atoms: _469  and  _470
REMARK  194  A    between atoms: _469  and  _472
REMARK  195  A    between atoms: _472  and  _473
REMARK  196  A    between atoms: _476  and  _478
REMARK  197  A    between atoms: _478  and  _479
REMARK  198  A    between atoms: _478  and  _481
REMARK  199  A    between atoms: _481  and  _482
REMARK  200  A    between atoms: _486  and  _487
REMARK  201  A    between atoms: _492  and  _494
REMARK  202  A    between atoms: _494  and  _495
REMARK  203  A    between atoms: _494  and  _497
REMARK  204  A    between atoms: _500  and  _502
REMARK  205  A    between atoms: _502  and  _503
REMARK  206  A    between atoms: _502  and  _505
REMARK  207  A    between atoms: _505  and  _506
REMARK  208  A    between atoms: _511  and  _513
REMARK  209  A    between atoms: _513  and  _514
REMARK  210  A    between atoms: _513  and  _516
REMARK  211  A    between atoms: _516  and  _517
REMARK  212  A    between atoms: _520  and  _522
REMARK  213  A    between atoms: _522  and  _523
REMARK  214  A    between atoms: _522  and  _525
REMARK  215  A    between atoms: _525  and  _526
REMARK  216  A    between atoms: _529  and  _531
REMARK  217  A    between atoms: _531  and  _532
REMARK  218  A    between atoms: _534  and  _536
REMARK  219  A    between atoms: _536  and  _537
REMARK  220  A    between atoms: _536  and  _539
REMARK  221  A    between atoms: _539  and  _540
REMARK  222  A    between atoms: _540  and  _541
REMARK  223  A    between atoms: _541  and  _542
REMARK  224  A    between atoms: _551  and  _553
REMARK  225  A    between atoms: _553  and  _554
REMARK  226  A    between atoms: _553  and  _556
REMARK  227  A    between atoms: _556  and  _557
REMARK                            x       y       z     vdW  Elec       q    Type
REMARK                         _______ _______ _______ _____ _____    ______ ____
ROOT
ATOM      1  O   HOH     1      20.850  33.334  10.643  0.00  0.00    +0.000 OA
ENDROOT
TORSDOF 0
REMARK  Name = ../refined-set-2016/3a2o/3a2o_pocket.pdb
REMARK  227 active torsions:
REMARK  status: ('A' for Active; 'I' for Inactive)
REMARK    1  A    between atoms: _1  and  _3
REMARK    2  A    between atoms: _3  and  _4
REMARK    3  A    between atoms: _3  and  _6
REMARK    4  A    between atoms: _6  and  _7
REMARK    5  A    between atoms: _7  and  _8
REMARK    6  A    between atoms: _8  and  _9
REMARK    7  A    between atoms: _18  and  _20
REMARK    8  A    between atoms: _20  and  _21
REMARK    9  A    between atoms: _20  and  _23
REMARK   10  A    between atoms: _23  and  _24
REMARK   11  A    between atoms: _27  and  _29
REMARK   12  A    between atoms: _29  and  _30
REMARK   13  A    between atoms: _29  and  _32
REMARK   14  A    between atoms: _32  and  _33
REMARK   15  A    between atoms: _36  and  _38
REMARK   16  A    between atoms: _38  and  _39
REMARK   17  A    between atoms: _38  and  _41
REMARK   18  A    between atoms: _41  and  _42
REMARK   19  A    between atoms: _45  and  _47
REMARK   20  A    between atoms: _47  and  _48
REMARK   21  A    between atoms: _47  and  _50
REMARK   22  A    between atoms: _50  and  _51
REMARK   23  A    between atoms: _54  and  _56
REMARK   24  A    between atoms: _56  and  _57
REMARK   25  A    between atoms: _59  and  _61
REMARK   26  A    between atoms: _61  and  _62
REMARK   27  A    between atoms: _65  and  _67
REMARK   28  A    between atoms: _67  and  _68
REMARK   29  A    between atoms: _67  and  _70
REMARK   30  A    between atoms: _70  and  _71
REMARK   31  A    between atoms: _74  and  _76
REMARK   32  A    between atoms: _76  and  _77
REMARK   33  A    between atoms: _76  and  _79
REMARK   34  A    between atoms: _79  and  _80
REMARK   35  A    between atoms: _83  and  _85
REMARK   36  A    between atoms: _85  and  _86
REMARK   37  A    between atoms: _85  and  _88
REMARK   38  A    between atoms: _88  and  _89
REMARK   39  A    between atoms: _92  and  _94
REMARK   40  A    between atoms: _94  and  _95
REMARK   41  A    between atoms: _94  and  _97
REMARK   42  A    between atoms: _100  and  _102
REMARK   43  A    between atoms: _102  and  _103
REMARK   44  A    between atoms: _102  and  _105
REMARK   45  A    between atoms: _106  and  _107
REMARK   46  A    between atoms: _107  and  _108
REMARK   47  A    between atoms: _108  and  _109
REMARK   48  A    between atoms: _113  and  _115
REMARK   49  A    between atoms: _115  and  _116
REMARK   50  A    between atoms: _115  and  _118
REMARK   51  A    between atoms: _118  and  _119
REMARK   52  A    between atoms: _119  and  _120
REMARK   53  A    between atoms: _122  and  _124
REMARK   54  A    between atoms: _124  and  _125
REMARK   55  A    between atoms: _124  and  _127
REMARK   56  A    between atoms: _127  and  _128
REMARK   57  A    between atoms: _131  and  _133
REMARK   58  A    between atoms: _133  and  _134
REMARK   59  A    between atoms: _136  and  _138
REMARK   60  A    between atoms: _138  and  _139
REMARK   61  A    between atoms: _141  and  _143
REMARK   62  A    between atoms: _143  and  _144
REMARK   63  A    between atoms: _143  and  _146
REMARK   64  A    between atoms: _146  and  _147
REMARK   65  A    between atoms: _150  and  _152
REMARK   66  A    between atoms: _152  and  _153
REMARK   67  A    between atoms: _155  and  _157
REMARK   68  A    between atoms: _157  and  _158
REMARK   69  A    between atoms: _160  and  _162
REMARK   70  A    between atoms: _162  and  _163
REMARK   71  A    between atoms: _162  and  _165
REMARK   72  A    between atoms: _165  and  _166
REMARK   73  A    between atoms: _169  and  _171
REMARK   74  A    between atoms: _171  and  _172
REMARK   75  A    between atoms: _171  and  _174
REMARK   76  A    between atoms: _177  and  _179
REMARK   77  A    between atoms: _179  and  _180
REMARK   78  A    between atoms: _179  and  _182
REMARK   79  A    between atoms: _182  and  _183
REMARK   80  A    between atoms: _187  and  _188
REMARK   81  A    between atoms: _193  and  _195
REMARK   82  A    between atoms: _195  and  _196
REMARK   83  A    between atoms: _195  and  _198
REMARK   84  A    between atoms: _198  and  _199
REMARK   85  A    between atoms: _203  and  _204
REMARK   86  A    between atoms: _209  and  _211
REMARK   87  A    between atoms: _211  and  _212
REMARK   88  A    between atoms: _211  and  _214
REMARK   89  A    between atoms: _217  and  _219
REMARK   90  A    between atoms: _219  and  _220
REMARK   91  A    between atoms: _219  and  _222
REMARK   92  A    between atoms: _222  and  _223
REMARK   93  A    between atoms: _228  and  _230
REMARK   94  A    between atoms: _230  and  _231
REMARK   95  A    between atoms: _230  and  _233
REMARK   96  A    between atoms: _233  and  _234
REMARK   97  A    between atoms: _237  and  _239
REMARK   98  A    between atoms: _239  and  _240
REMARK   99  A    between atoms: _239  and  _242
REMARK  100  A    between atoms: _242  and  _243
REMARK  101  A    between atoms: _246  and  _248
REMARK  102  A    between atoms: _248  and  _249
REMARK  103  A    between atoms: _251  and  _253
REMARK  104  A    between atoms: _253  and  _254
REMARK  105  A    between atoms: _253  and  _256
REMARK  106  A    between atoms: _256  and  _257
REMARK  107  A    between atoms: _257  and  _258
REMARK  108  A    between atoms: _258  and  _259
REMARK  109  A    between atoms: _268  and  _270
REMARK  110  A    between atoms: _270  and  _271
REMARK  111  A    between atoms: _270  and  _273
REMARK  112  A    between atoms: _273  and  _274
REMARK  113  A    between atoms: _279  and  _281
REMARK  114  A    between atoms: _281  and  _282
REMARK  115  A    between atoms: _281  and  _284
REMARK  116  A    between atoms: _284  and  _285
REMARK  117  A    between atoms: _285  and  _286
REMARK  118  A    between atoms: _286  and  _287
REMARK  119  A    between atoms: _296  and  _298
REMARK  120  A    between atoms: _298  and  _299
REMARK  121  A    between atoms: _298  and  _301
REMARK  122  A    between atoms: _301  and  _302
REMARK  123  A    between atoms: _305  and  _307
REMARK  124  A    between atoms: _307  and  _308
REMARK  125  A    between atoms: _307  and  _310
REMARK  126  A    between atoms: _310  and  _311
REMARK  127  A    between atoms: _314  and  _316
REMARK  128  A    between atoms: _316  and  _317
REMARK  129  A    between atoms: _316  and  _319
REMARK  130  A    between atoms: _319  and  _320
REMARK  131  A    between atoms: _323  and  _325
REMARK  132  A    between atoms: _325  and  _326
REMARK  133  A    between atoms: _325  and  _328
REMARK  134  A    between atoms: _328  and  _329
REMARK  135  A    between atoms: _332  and  _334
REMARK  136  A    between atoms: _334  and  _335
REMARK  137  A    between atoms: _337  and  _339
REMARK  138  A    between atoms: _339  and  _340
REMARK  139  A    between atoms: _343  and  _345
REMARK  140  A    between atoms: _345  and  _346
REMARK  141  A    between atoms: _345  and  _348
REMARK  142  A    between atoms: _348  and  _349
REMARK  143  A    between atoms: _352  and  _354
REMARK  144  A    between atoms: _354  and  _355
REMARK  145  A    between atoms: _354  and  _357
REMARK  146  A    between atoms: _357  and  _358
REMARK  147  A    between atoms: _361  and  _363
REMARK  148  A    between atoms: _363  and  _364
REMARK  149  A    between atoms: _363  and  _366
REMARK  150  A    between atoms: _366  and  _367
REMARK  151  A    between atoms: _370  and  _372
REMARK  152  A    between atoms: _372  and  _373
REMARK  153  A    between atoms: _372  and  _375
REMARK  154  A    between atoms: _378  and  _380
REMARK  155  A    between atoms: _380  and  _381
REMARK  156  A    between atoms: _380  and  _383
REMARK  157  A    between atoms: _384  and  _385
REMARK  158  A    between atoms: _385  and  _386
REMARK  159  A    between atoms: _386  and  _387
REMARK  160  A    between atoms: _391  and  _393
REMARK  161  A    between atoms: _393  and  _394
REMARK  162  A    between atoms: _393  and  _396
REMARK  163  A    between atoms: _396  and  _397
REMARK  164  A    between atoms: _397  and  _398
REMARK  165  A    between atoms: _400  and  _402
REMARK  166  A    between atoms: _402  and  _403
REMARK  167  A    between atoms: _402  and  _405
REMARK  168  A    between atoms: _405  and  _406
REMARK  169  A    between atoms: _409  and  _411
REMARK  170  A    between atoms: _411  and  _412
REMARK  171  A    between atoms: _414  and  _416
REMARK  172  A    between atoms: _416  and  _417
REMARK  173  A    between atoms: _419  and  _421
REMARK  174  A    between atoms: _421  and  _422
REMARK  175  A    between atoms: _421  and  _424
REMARK  176  A    between atoms: _424  and  _425
REMARK  177  A    between atoms: _428  and  _430
REMARK  178  A    between atoms: _430  and  _431
REMARK  179  A    between atoms: _433  and  _435
REMARK  180  A    between atoms: _435  and  _436
REMARK  181  A    between atoms: _438  and  _440
REMARK  182  A    between atoms: _440  and  _441
REMARK  183  A    between atoms: _440  and  _443
REMARK  184  A    between atoms: _443  and  _444
REMARK  185  A    between atoms: _450  and  _452
REMARK  186  A    between atoms: _452  and  _453
REMARK  187  A    between atoms: _452  and  _455
REMARK  188  A    between atoms: _455  and  _456
REMARK  189  A    between atoms: _459  and  _461
REMARK  190  A    between atoms: _461  and  _462
REMARK  191  A    between atoms: _461  and  _464
REMARK  192  A    between atoms: _467  and  _469
REMARK  193  A    between atoms: _469  and  _470
REMARK  194  A    between atoms: _469  and  _472
REMARK  195  A    between atoms: _472  and  _473
REMARK  196  A    between atoms: _476  and  _478
REMARK  197  A    between atoms: _478  and  _479
REMARK  198  A    between atoms: _478  and  _481
REMARK  199  A    between atoms: _481  and  _482
REMARK  200  A    between atoms: _486  and  _487
REMARK  201  A    between atoms: _492  and  _494
REMARK  202  A    between atoms: _494  and  _495
REMARK  203  A    between atoms: _494  and  _497
REMARK  204  A    between atoms: _500  and  _502
REMARK  205  A    between atoms: _502  and  _503
REMARK  206  A    between atoms: _502  and  _505
REMARK  207  A    between atoms: _505  and  _506
REMARK  208  A    between atoms: _511  and  _513
REMARK  209  A    between atoms: _513  and  _514
REMARK  210  A    between atoms: _513  and  _516
REMARK  211  A    between atoms: _516  and  _517
REMARK  212  A    between atoms: _520  and  _522
REMARK  213  A    between atoms: _522  and  _523
REMARK  214  A    between atoms: _522  and  _525
REMARK  215  A    between atoms: _525  and  _526
REMARK  216  A    between atoms: _529  and  _531
REMARK  217  A    between atoms: _531  and  _532
REMARK  218  A    between atoms: _534  and  _536
REMARK  219  A    between atoms: _536  and  _537
REMARK  220  A    between atoms: _536  and  _539
REMARK  221  A    between atoms: _539  and  _540
REMARK  222  A    between atoms: _540  and  _541
REMARK  223  A    between atoms: _541  and  _542
REMARK  224  A    between atoms: _551  and  _553
REMARK  225  A    between atoms: _553  and  _554
REMARK  226  A    between atoms: _553  and  _556
REMARK  227  A    between atoms: _556  and  _557
REMARK                            x       y       z     vdW  Elec       q    Type
REMARK                         _______ _______ _______ _____ _____    ______ ____
ROOT
ATOM      1  O   HOH     1      18.557  30.549  21.814  0.00  0.00    +0.000 OA
ENDROOT
TORSDOF 0
REMARK  Name = ../refined-set-2016/3a2o/3a2o_pocket.pdb
REMARK  227 active torsions:
REMARK  status: ('A' for Active; 'I' for Inactive)
REMARK    1  A    between atoms: _1  and  _3
REMARK    2  A    between atoms: _3  and  _4
REMARK    3  A    between atoms: _3  and  _6
REMARK    4  A    between atoms: _6  and  _7
REMARK    5  A    between atoms: _7  and  _8
REMARK    6  A    between atoms: _8  and  _9
REMARK    7  A    between atoms: _18  and  _20
REMARK    8  A    between atoms: _20  and  _21
REMARK    9  A    between atoms: _20  and  _23
REMARK   10  A    between atoms: _23  and  _24
REMARK   11  A    between atoms: _27  and  _29
REMARK   12  A    between atoms: _29  and  _30
REMARK   13  A    between atoms: _29  and  _32
REMARK   14  A    between atoms: _32  and  _33
REMARK   15  A    between atoms: _36  and  _38
REMARK   16  A    between atoms: _38  and  _39
REMARK   17  A    between atoms: _38  and  _41
REMARK   18  A    between atoms: _41  and  _42
REMARK   19  A    between atoms: _45  and  _47
REMARK   20  A    between atoms: _47  and  _48
REMARK   21  A    between atoms: _47  and  _50
REMARK   22  A    between atoms: _50  and  _51
REMARK   23  A    between atoms: _54  and  _56
REMARK   24  A    between atoms: _56  and  _57
REMARK   25  A    between atoms: _59  and  _61
REMARK   26  A    between atoms: _61  and  _62
REMARK   27  A    between atoms: _65  and  _67
REMARK   28  A    between atoms: _67  and  _68
REMARK   29  A    between atoms: _67  and  _70
REMARK   30  A    between atoms: _70  and  _71
REMARK   31  A    between atoms: _74  and  _76
REMARK   32  A    between atoms: _76  and  _77
REMARK   33  A    between atoms: _76  and  _79
REMARK   34  A    between atoms: _79  and  _80
REMARK   35  A    between atoms: _83  and  _85
REMARK   36  A    between atoms: _85  and  _86
REMARK   37  A    between atoms: _85  and  _88
REMARK   38  A    between atoms: _88  and  _89
REMARK   39  A    between atoms: _92  and  _94
REMARK   40  A    between atoms: _94  and  _95
REMARK   41  A    between atoms: _94  and  _97
REMARK   42  A    between atoms: _100  and  _102
REMARK   43  A    between atoms: _102  and  _103
REMARK   44  A    between atoms: _102  and  _105
REMARK   45  A    between atoms: _106  and  _107
REMARK   46  A    between atoms: _107  and  _108
REMARK   47  A    between atoms: _108  and  _109
REMARK   48  A    between atoms: _113  and  _115
REMARK   49  A    between atoms: _115  and  _116
REMARK   50  A    between atoms: _115  and  _118
REMARK   51  A    between atoms: _118  and  _119
REMARK   52  A    between atoms: _119  and  _120
REMARK   53  A    between atoms: _122  and  _124
REMARK   54  A    between atoms: _124  and  _125
REMARK   55  A    between atoms: _124  and  _127
REMARK   56  A    between atoms: _127  and  _128
REMARK   57  A    between atoms: _131  and  _133
REMARK   58  A    between atoms: _133  and  _134
REMARK   59  A    between atoms: _136  and  _138
REMARK   60  A    between atoms: _138  and  _139
REMARK   61  A    between atoms: _141  and  _143
REMARK   62  A    between atoms: _143  and  _144
REMARK   63  A    between atoms: _143  and  _146
REMARK   64  A    between atoms: _146  and  _147
REMARK   65  A    between atoms: _150  and  _152
REMARK   66  A    between atoms: _152  and  _153
REMARK   67  A    between atoms: _155  and  _157
REMARK   68  A    between atoms: _157  and  _158
REMARK   69  A    between atoms: _160  and  _162
REMARK   70  A    between atoms: _162  and  _163
REMARK   71  A    between atoms: _162  and  _165
REMARK   72  A    between atoms: _165  and  _166
REMARK   73  A    between atoms: _169  and  _171
REMARK   74  A    between atoms: _171  and  _172
REMARK   75  A    between atoms: _171  and  _174
REMARK   76  A    between atoms: _177  and  _179
REMARK   77  A    between atoms: _179  and  _180
REMARK   78  A    between atoms: _179  and  _182
REMARK   79  A    between atoms: _182  and  _183
REMARK   80  A    between atoms: _187  and  _188
REMARK   81  A    between atoms: _193  and  _195
REMARK   82  A    between atoms: _195  and  _196
REMARK   83  A    between atoms: _195  and  _198
REMARK   84  A    between atoms: _198  and  _199
REMARK   85  A    between atoms: _203  and  _204
REMARK   86  A    between atoms: _209  and  _211
REMARK   87  A    between atoms: _211  and  _212
REMARK   88  A    between atoms: _211  and  _214
REMARK   89  A    between atoms: _217  and  _219
REMARK   90  A    between atoms: _219  and  _220
REMARK   91  A    between atoms: _219  and  _222
REMARK   92  A    between atoms: _222  and  _223
REMARK   93  A    between atoms: _228  and  _230
REMARK   94  A    between atoms: _230  and  _231
REMARK   95  A    between atoms: _230  and  _233
REMARK   96  A    between atoms: _233  and  _234
REMARK   97  A    between atoms: _237  and  _239
REMARK   98  A    between atoms: _239  and  _240
REMARK   99  A    between atoms: _239  and  _242
REMARK  100  A    between atoms: _242  and  _243
REMARK  101  A    between atoms: _246  and  _248
REMARK  102  A    between atoms: _248  and  _249
REMARK  103  A    between atoms: _251  and  _253
REMARK  104  A    between atoms: _253  and  _254
REMARK  105  A    between atoms: _253  and  _256
REMARK  106  A    between atoms: _256  and  _257
REMARK  107  A    between atoms: _257  and  _258
REMARK  108  A    between atoms: _258  and  _259
REMARK  109  A    between atoms: _268  and  _270
REMARK  110  A    between atoms: _270  and  _271
REMARK  111  A    between atoms: _270  and  _273
REMARK  112  A    between atoms: _273  and  _274
REMARK  113  A    between atoms: _279  and  _281
REMARK  114  A    between atoms: _281  and  _282
REMARK  115  A    between atoms: _281  and  _284
REMARK  116  A    between atoms: _284  and  _285
REMARK  117  A    between atoms: _285  and  _286
REMARK  118  A    between atoms: _286  and  _287
REMARK  119  A    between atoms: _296  and  _298
REMARK  120  A    between atoms: _298  and  _299
REMARK  121  A    between atoms: _298  and  _301
REMARK  122  A    between atoms: _301  and  _302
REMARK  123  A    between atoms: _305  and  _307
REMARK  124  A    between atoms: _307  and  _308
REMARK  125  A    between atoms: _307  and  _310
REMARK  126  A    between atoms: _310  and  _311
REMARK  127  A    between atoms: _314  and  _316
REMARK  128  A    between atoms: _316  and  _317
REMARK  129  A    between atoms: _316  and  _319
REMARK  130  A    between atoms: _319  and  _320
REMARK  131  A    between atoms: _323  and  _325
REMARK  132  A    between atoms: _325  and  _326
REMARK  133  A    between atoms: _325  and  _328
REMARK  134  A    between atoms: _328  and  _329
REMARK  135  A    between atoms: _332  and  _334
REMARK  136  A    between atoms: _334  and  _335
REMARK  137  A    between atoms: _337  and  _339
REMARK  138  A    between atoms: _339  and  _340
REMARK  139  A    between atoms: _343  and  _345
REMARK  140  A    between atoms: _345  and  _346
REMARK  141  A    between atoms: _345  and  _348
REMARK  142  A    between atoms: _348  and  _349
REMARK  143  A    between atoms: _352  and  _354
REMARK  144  A    between atoms: _354  and  _355
REMARK  145  A    between atoms: _354  and  _357
REMARK  146  A    between atoms: _357  and  _358
REMARK  147  A    between atoms: _361  and  _363
REMARK  148  A    between atoms: _363  and  _364
REMARK  149  A    between atoms: _363  and  _366
REMARK  150  A    between atoms: _366  and  _367
REMARK  151  A    between atoms: _370  and  _372
REMARK  152  A    between atoms: _372  and  _373
REMARK  153  A    between atoms: _372  and  _375
REMARK  154  A    between atoms: _378  and  _380
REMARK  155  A    between atoms: _380  and  _381
REMARK  156  A    between atoms: _380  and  _383
REMARK  157  A    between atoms: _384  and  _385
REMARK  158  A    between atoms: _385  and  _386
REMARK  159  A    between atoms: _386  and  _387
REMARK  160  A    between atoms: _391  and  _393
REMARK  161  A    between atoms: _393  and  _394
REMARK  162  A    between atoms: _393  and  _396
REMARK  163  A    between atoms: _396  and  _397
REMARK  164  A    between atoms: _397  and  _398
REMARK  165  A    between atoms: _400  and  _402
REMARK  166  A    between atoms: _402  and  _403
REMARK  167  A    between atoms: _402  and  _405
REMARK  168  A    between atoms: _405  and  _406
REMARK  169  A    between atoms: _409  and  _411
REMARK  170  A    between atoms: _411  and  _412
REMARK  171  A    between atoms: _414  and  _416
REMARK  172  A    between atoms: _416  and  _417
REMARK  173  A    between atoms: _419  and  _421
REMARK  174  A    between atoms: _421  and  _422
REMARK  175  A    between atoms: _421  and  _424
REMARK  176  A    between atoms: _424  and  _425
REMARK  177  A    between atoms: _428  and  _430
REMARK  178  A    between atoms: _430  and  _431
REMARK  179  A    between atoms: _433  and  _435
REMARK  180  A    between atoms: _435  and  _436
REMARK  181  A    between atoms: _438  and  _440
REMARK  182  A    between atoms: _440  and  _441
REMARK  183  A    between atoms: _440  and  _443
REMARK  184  A    between atoms: _443  and  _444
REMARK  185  A    between atoms: _450  and  _452
REMARK  186  A    between atoms: _452  and  _453
REMARK  187  A    between atoms: _452  and  _455
REMARK  188  A    between atoms: _455  and  _456
REMARK  189  A    between atoms: _459  and  _461
REMARK  190  A    between atoms: _461  and  _462
REMARK  191  A    between atoms: _461  and  _464
REMARK  192  A    between atoms: _467  and  _469
REMARK  193  A    between atoms: _469  and  _470
REMARK  194  A    between atoms: _469  and  _472
REMARK  195  A    between atoms: _472  and  _473
REMARK  196  A    between atoms: _476  and  _478
REMARK  197  A    between atoms: _478  and  _479
REMARK  198  A    between atoms: _478  and  _481
REMARK  199  A    between atoms: _481  and  _482
REMARK  200  A    between atoms: _486  and  _487
REMARK  201  A    between atoms: _492  and  _494
REMARK  202  A    between atoms: _494  and  _495
REMARK  203  A    between atoms: _494  and  _497
REMARK  204  A    between atoms: _500  and  _502
REMARK  205  A    between atoms: _502  and  _503
REMARK  206  A    between atoms: _502  and  _505
REMARK  207  A    between atoms: _505  and  _506
REMARK  208  A    between atoms: _511  and  _513
REMARK  209  A    between atoms: _513  and  _514
REMARK  210  A    between atoms: _513  and  _516
REMARK  211  A    between atoms: _516  and  _517
REMARK  212  A    between atoms: _520  and  _522
REMARK  213  A    between atoms: _522  and  _523
REMARK  214  A    between atoms: _522  and  _525
REMARK  215  A    between atoms: _525  and  _526
REMARK  216  A    between atoms: _529  and  _531
REMARK  217  A    between atoms: _531  and  _532
REMARK  218  A    between atoms: _534  and  _536
REMARK  219  A    between atoms: _536  and  _537
REMARK  220  A    between atoms: _536  and  _539
REMARK  221  A    between atoms: _539  and  _540
REMARK  222  A    between atoms: _540  and  _541
REMARK  223  A    between atoms: _541  and  _542
REMARK  224  A    between atoms: _551  and  _553
REMARK  225  A    between atoms: _553  and  _554
REMARK  226  A    between atoms: _553  and  _556
REMARK  227  A    between atoms: _556  and  _557
REMARK                            x       y       z     vdW  Elec       q    Type
REMARK                         _______ _______ _______ _____ _____    ______ ____
ROOT
ATOM      1  O   HOH     1       9.264  21.057  14.065  0.00  0.00    +0.000 OA
ENDROOT
TORSDOF 0
REMARK  Name = ../refined-set-2016/3a2o/3a2o_pocket.pdb
REMARK  227 active torsions:
REMARK  status: ('A' for Active; 'I' for Inactive)
REMARK    1  A    between atoms: _1  and  _3
REMARK    2  A    between atoms: _3  and  _4
REMARK    3  A    between atoms: _3  and  _6
REMARK    4  A    between atoms: _6  and  _7
REMARK    5  A    between atoms: _7  and  _8
REMARK    6  A    between atoms: _8  and  _9
REMARK    7  A    between atoms: _18  and  _20
REMARK    8  A    between atoms: _20  and  _21
REMARK    9  A    between atoms: _20  and  _23
REMARK   10  A    between atoms: _23  and  _24
REMARK   11  A    between atoms: _27  and  _29
REMARK   12  A    between atoms: _29  and  _30
REMARK   13  A    between atoms: _29  and  _32
REMARK   14  A    between atoms: _32  and  _33
REMARK   15  A    between atoms: _36  and  _38
REMARK   16  A    between atoms: _38  and  _39
REMARK   17  A    between atoms: _38  and  _41
REMARK   18  A    between atoms: _41  and  _42
REMARK   19  A    between atoms: _45  and  _47
REMARK   20  A    between atoms: _47  and  _48
REMARK   21  A    between atoms: _47  and  _50
REMARK   22  A    between atoms: _50  and  _51
REMARK   23  A    between atoms: _54  and  _56
REMARK   24  A    between atoms: _56  and  _57
REMARK   25  A    between atoms: _59  and  _61
REMARK   26  A    between atoms: _61  and  _62
REMARK   27  A    between atoms: _65  and  _67
REMARK   28  A    between atoms: _67  and  _68
REMARK   29  A    between atoms: _67  and  _70
REMARK   30  A    between atoms: _70  and  _71
REMARK   31  A    between atoms: _74  and  _76
REMARK   32  A    between atoms: _76  and  _77
REMARK   33  A    between atoms: _76  and  _79
REMARK   34  A    between atoms: _79  and  _80
REMARK   35  A    between atoms: _83  and  _85
REMARK   36  A    between atoms: _85  and  _86
REMARK   37  A    between atoms: _85  and  _88
REMARK   38  A    between atoms: _88  and  _89
REMARK   39  A    between atoms: _92  and  _94
REMARK   40  A    between atoms: _94  and  _95
REMARK   41  A    between atoms: _94  and  _97
REMARK   42  A    between atoms: _100  and  _102
REMARK   43  A    between atoms: _102  and  _103
REMARK   44  A    between atoms: _102  and  _105
REMARK   45  A    between atoms: _106  and  _107
REMARK   46  A    between atoms: _107  and  _108
REMARK   47  A    between atoms: _108  and  _109
REMARK   48  A    between atoms: _113  and  _115
REMARK   49  A    between atoms: _115  and  _116
REMARK   50  A    between atoms: _115  and  _118
REMARK   51  A    between atoms: _118  and  _119
REMARK   52  A    between atoms: _119  and  _120
REMARK   53  A    between atoms: _122  and  _124
REMARK   54  A    between atoms: _124  and  _125
REMARK   55  A    between atoms: _124  and  _127
REMARK   56  A    between atoms: _127  and  _128
REMARK   57  A    between atoms: _131  and  _133
REMARK   58  A    between atoms: _133  and  _134
REMARK   59  A    between atoms: _136  and  _138
REMARK   60  A    between atoms: _138  and  _139
REMARK   61  A    between atoms: _141  and  _143
REMARK   62  A    between atoms: _143  and  _144
REMARK   63  A    between atoms: _143  and  _146
REMARK   64  A    between atoms: _146  and  _147
REMARK   65  A    between atoms: _150  and  _152
REMARK   66  A    between atoms: _152  and  _153
REMARK   67  A    between atoms: _155  and  _157
REMARK   68  A    between atoms: _157  and  _158
REMARK   69  A    between atoms: _160  and  _162
REMARK   70  A    between atoms: _162  and  _163
REMARK   71  A    between atoms: _162  and  _165
REMARK   72  A    between atoms: _165  and  _166
REMARK   73  A    between atoms: _169  and  _171
REMARK   74  A    between atoms: _171  and  _172
REMARK   75  A    between atoms: _171  and  _174
REMARK   76  A    between atoms: _177  and  _179
REMARK   77  A    between atoms: _179  and  _180
REMARK   78  A    between atoms: _179  and  _182
REMARK   79  A    between atoms: _182  and  _183
REMARK   80  A    between atoms: _187  and  _188
REMARK   81  A    between atoms: _193  and  _195
REMARK   82  A    between atoms: _195  and  _196
REMARK   83  A    between atoms: _195  and  _198
REMARK   84  A    between atoms: _198  and  _199
REMARK   85  A    between atoms: _203  and  _204
REMARK   86  A    between atoms: _209  and  _211
REMARK   87  A    between atoms: _211  and  _212
REMARK   88  A    between atoms: _211  and  _214
REMARK   89  A    between atoms: _217  and  _219
REMARK   90  A    between atoms: _219  and  _220
REMARK   91  A    between atoms: _219  and  _222
REMARK   92  A    between atoms: _222  and  _223
REMARK   93  A    between atoms: _228  and  _230
REMARK   94  A    between atoms: _230  and  _231
REMARK   95  A    between atoms: _230  and  _233
REMARK   96  A    between atoms: _233  and  _234
REMARK   97  A    between atoms: _237  and  _239
REMARK   98  A    between atoms: _239  and  _240
REMARK   99  A    between atoms: _239  and  _242
REMARK  100  A    between atoms: _242  and  _243
REMARK  101  A    between atoms: _246  and  _248
REMARK  102  A    between atoms: _248  and  _249
REMARK  103  A    between atoms: _251  and  _253
REMARK  104  A    between atoms: _253  and  _254
REMARK  105  A    between atoms: _253  and  _256
REMARK  106  A    between atoms: _256  and  _257
REMARK  107  A    between atoms: _257  and  _258
REMARK  108  A    between atoms: _258  and  _259
REMARK  109  A    between atoms: _268  and  _270
REMARK  110  A    between atoms: _270  and  _271
REMARK  111  A    between atoms: _270  and  _273
REMARK  112  A    between atoms: _273  and  _274
REMARK  113  A    between atoms: _279  and  _281
REMARK  114  A    between atoms: _281  and  _282
REMARK  115  A    between atoms: _281  and  _284
REMARK  116  A    between atoms: _284  and  _285
REMARK  117  A    between atoms: _285  and  _286
REMARK  118  A    between atoms: _286  and  _287
REMARK  119  A    between atoms: _296  and  _298
REMARK  120  A    between atoms: _298  and  _299
REMARK  121  A    between atoms: _298  and  _301
REMARK  122  A    between atoms: _301  and  _302
REMARK  123  A    between atoms: _305  and  _307
REMARK  124  A    between atoms: _307  and  _308
REMARK  125  A    between atoms: _307  and  _310
REMARK  126  A    between atoms: _310  and  _311
REMARK  127  A    between atoms: _314  and  _316
REMARK  128  A    between atoms: _316  and  _317
REMARK  129  A    between atoms: _316  and  _319
REMARK  130  A    between atoms: _319  and  _320
REMARK  131  A    between atoms: _323  and  _325
REMARK  132  A    between atoms: _325  and  _326
REMARK  133  A    between atoms: _325  and  _328
REMARK  134  A    between atoms: _328  and  _329
REMARK  135  A    between atoms: _332  and  _334
REMARK  136  A    between atoms: _334  and  _335
REMARK  137  A    between atoms: _337  and  _339
REMARK  138  A    between atoms: _339  and  _340
REMARK  139  A    between atoms: _343  and  _345
REMARK  140  A    between atoms: _345  and  _346
REMARK  141  A    between atoms: _345  and  _348
REMARK  142  A    between atoms: _348  and  _349
REMARK  143  A    between atoms: _352  and  _354
REMARK  144  A    between atoms: _354  and  _355
REMARK  145  A    between atoms: _354  and  _357
REMARK  146  A    between atoms: _357  and  _358
REMARK  147  A    between atoms: _361  and  _363
REMARK  148  A    between atoms: _363  and  _364
REMARK  149  A    between atoms: _363  and  _366
REMARK  150  A    between atoms: _366  and  _367
REMARK  151  A    between atoms: _370  and  _372
REMARK  152  A    between atoms: _372  and  _373
REMARK  153  A    between atoms: _372  and  _375
REMARK  154  A    between atoms: _378  and  _380
REMARK  155  A    between atoms: _380  and  _381
REMARK  156  A    between atoms: _380  and  _383
REMARK  157  A    between atoms: _384  and  _385
REMARK  158  A    between atoms: _385  and  _386
REMARK  159  A    between atoms: _386  and  _387
REMARK  160  A    between atoms: _391  and  _393
REMARK  161  A    between atoms: _393  and  _394
REMARK  162  A    between atoms: _393  and  _396
REMARK  163  A    between atoms: _396  and  _397
REMARK  164  A    between atoms: _397  and  _398
REMARK  165  A    between atoms: _400  and  _402
REMARK  166  A    between atoms: _402  and  _403
REMARK  167  A    between atoms: _402  and  _405
REMARK  168  A    between atoms: _405  and  _406
REMARK  169  A    between atoms: _409  and  _411
REMARK  170  A    between atoms: _411  and  _412
REMARK  171  A    between atoms: _414  and  _416
REMARK  172  A    between atoms: _416  and  _417
REMARK  173  A    between atoms: _419  and  _421
REMARK  174  A    between atoms: _421  and  _422
REMARK  175  A    between atoms: _421  and  _424
REMARK  176  A    between atoms: _424  and  _425
REMARK  177  A    between atoms: _428  and  _430
REMARK  178  A    between atoms: _430  and  _431
REMARK  179  A    between atoms: _433  and  _435
REMARK  180  A    between atoms: _435  and  _436
REMARK  181  A    between atoms: _438  and  _440
REMARK  182  A    between atoms: _440  and  _441
REMARK  183  A    between atoms: _440  and  _443
REMARK  184  A    between atoms: _443  and  _444
REMARK  185  A    between atoms: _450  and  _452
REMARK  186  A    between atoms: _452  and  _453
REMARK  187  A    between atoms: _452  and  _455
REMARK  188  A    between atoms: _455  and  _456
REMARK  189  A    between atoms: _459  and  _461
REMARK  190  A    between atoms: _461  and  _462
REMARK  191  A    between atoms: _461  and  _464
REMARK  192  A    between atoms: _467  and  _469
REMARK  193  A    between atoms: _469  and  _470
REMARK  194  A    between atoms: _469  and  _472
REMARK  195  A    between atoms: _472  and  _473
REMARK  196  A    between atoms: _476  and  _478
REMARK  197  A    between atoms: _478  and  _479
REMARK  198  A    between atoms: _478  and  _481
REMARK  199  A    between atoms: _481  and  _482
REMARK  200  A    between atoms: _486  and  _487
REMARK  201  A    between atoms: _492  and  _494
REMARK  202  A    between atoms: _494  and  _495
REMARK  203  A    between atoms: _494  and  _497
REMARK  204  A    between atoms: _500  and  _502
REMARK  205  A    between atoms: _502  and  _503
REMARK  206  A    between atoms: _502  and  _505
REMARK  207  A    between atoms: _505  and  _506
REMARK  208  A    between atoms: _511  and  _513
REMARK  209  A    between atoms: _513  and  _514
REMARK  210  A    between atoms: _513  and  _516
REMARK  211  A    between atoms: _516  and  _517
REMARK  212  A    between atoms: _520  and  _522
REMARK  213  A    between atoms: _522  and  _523
REMARK  214  A    between atoms: _522  and  _525
REMARK  215  A    between atoms: _525  and  _526
REMARK  216  A    between atoms: _529  and  _531
REMARK  217  A    between atoms: _531  and  _532
REMARK  218  A    between atoms: _534  and  _536
REMARK  219  A    between atoms: _536  and  _537
REMARK  220  A    between atoms: _536  and  _539
REMARK  221  A    between atoms: _539  and  _540
REMARK  222  A    between atoms: _540  and  _541
REMARK  223  A    between atoms: _541  and  _542
REMARK  224  A    between atoms: _551  and  _553
REMARK  225  A    between atoms: _553  and  _554
REMARK  226  A    between atoms: _553  and  _556
REMARK  227  A    between atoms: _556  and  _557
REMARK                            x       y       z     vdW  Elec       q    Type
REMARK                         _______ _______ _______ _____ _____    ______ ____
ROOT
ATOM      1  O   HOH     1      20.433  28.516  21.283  0.00  0.00    +0.000 OA
ENDROOT
TORSDOF 0
REMARK  Name = ../refined-set-2016/3a2o/3a2o_pocket.pdb
REMARK  227 active torsions:
REMARK  status: ('A' for Active; 'I' for Inactive)
REMARK    1  A    between atoms: _1  and  _3
REMARK    2  A    between atoms: _3  and  _4
REMARK    3  A    between atoms: _3  and  _6
REMARK    4  A    between atoms: _6  and  _7
REMARK    5  A    between atoms: _7  and  _8
REMARK    6  A    between atoms: _8  and  _9
REMARK    7  A    between atoms: _18  and  _20
REMARK    8  A    between atoms: _20  and  _21
REMARK    9  A    between atoms: _20  and  _23
REMARK   10  A    between atoms: _23  and  _24
REMARK   11  A    between atoms: _27  and  _29
REMARK   12  A    between atoms: _29  and  _30
REMARK   13  A    between atoms: _29  and  _32
REMARK   14  A    between atoms: _32  and  _33
REMARK   15  A    between atoms: _36  and  _38
REMARK   16  A    between atoms: _38  and  _39
REMARK   17  A    between atoms: _38  and  _41
REMARK   18  A    between atoms: _41  and  _42
REMARK   19  A    between atoms: _45  and  _47
REMARK   20  A    between atoms: _47  and  _48
REMARK   21  A    between atoms: _47  and  _50
REMARK   22  A    between atoms: _50  and  _51
REMARK   23  A    between atoms: _54  and  _56
REMARK   24  A    between atoms: _56  and  _57
REMARK   25  A    between atoms: _59  and  _61
REMARK   26  A    between atoms: _61  and  _62
REMARK   27  A    between atoms: _65  and  _67
REMARK   28  A    between atoms: _67  and  _68
REMARK   29  A    between atoms: _67  and  _70
REMARK   30  A    between atoms: _70  and  _71
REMARK   31  A    between atoms: _74  and  _76
REMARK   32  A    between atoms: _76  and  _77
REMARK   33  A    between atoms: _76  and  _79
REMARK   34  A    between atoms: _79  and  _80
REMARK   35  A    between atoms: _83  and  _85
REMARK   36  A    between atoms: _85  and  _86
REMARK   37  A    between atoms: _85  and  _88
REMARK   38  A    between atoms: _88  and  _89
REMARK   39  A    between atoms: _92  and  _94
REMARK   40  A    between atoms: _94  and  _95
REMARK   41  A    between atoms: _94  and  _97
REMARK   42  A    between atoms: _100  and  _102
REMARK   43  A    between atoms: _102  and  _103
REMARK   44  A    between atoms: _102  and  _105
REMARK   45  A    between atoms: _106  and  _107
REMARK   46  A    between atoms: _107  and  _108
REMARK   47  A    between atoms: _108  and  _109
REMARK   48  A    between atoms: _113  and  _115
REMARK   49  A    between atoms: _115  and  _116
REMARK   50  A    between atoms: _115  and  _118
REMARK   51  A    between atoms: _118  and  _119
REMARK   52  A    between atoms: _119  and  _120
REMARK   53  A    between atoms: _122  and  _124
REMARK   54  A    between atoms: _124  and  _125
REMARK   55  A    between atoms: _124  and  _127
REMARK   56  A    between atoms: _127  and  _128
REMARK   57  A    between atoms: _131  and  _133
REMARK   58  A    between atoms: _133  and  _134
REMARK   59  A    between atoms: _136  and  _138
REMARK   60  A    between atoms: _138  and  _139
REMARK   61  A    between atoms: _141  and  _143
REMARK   62  A    between atoms: _143  and  _144
REMARK   63  A    between atoms: _143  and  _146
REMARK   64  A    between atoms: _146  and  _147
REMARK   65  A    between atoms: _150  and  _152
REMARK   66  A    between atoms: _152  and  _153
REMARK   67  A    between atoms: _155  and  _157
REMARK   68  A    between atoms: _157  and  _158
REMARK   69  A    between atoms: _160  and  _162
REMARK   70  A    between atoms: _162  and  _163
REMARK   71  A    between atoms: _162  and  _165
REMARK   72  A    between atoms: _165  and  _166
REMARK   73  A    between atoms: _169  and  _171
REMARK   74  A    between atoms: _171  and  _172
REMARK   75  A    between atoms: _171  and  _174
REMARK   76  A    between atoms: _177  and  _179
REMARK   77  A    between atoms: _179  and  _180
REMARK   78  A    between atoms: _179  and  _182
REMARK   79  A    between atoms: _182  and  _183
REMARK   80  A    between atoms: _187  and  _188
REMARK   81  A    between atoms: _193  and  _195
REMARK   82  A    between atoms: _195  and  _196
REMARK   83  A    between atoms: _195  and  _198
REMARK   84  A    between atoms: _198  and  _199
REMARK   85  A    between atoms: _203  and  _204
REMARK   86  A    between atoms: _209  and  _211
REMARK   87  A    between atoms: _211  and  _212
REMARK   88  A    between atoms: _211  and  _214
REMARK   89  A    between atoms: _217  and  _219
REMARK   90  A    between atoms: _219  and  _220
REMARK   91  A    between atoms: _219  and  _222
REMARK   92  A    between atoms: _222  and  _223
REMARK   93  A    between atoms: _228  and  _230
REMARK   94  A    between atoms: _230  and  _231
REMARK   95  A    between atoms: _230  and  _233
REMARK   96  A    between atoms: _233  and  _234
REMARK   97  A    between atoms: _237  and  _239
REMARK   98  A    between atoms: _239  and  _240
REMARK   99  A    between atoms: _239  and  _242
REMARK  100  A    between atoms: _242  and  _243
REMARK  101  A    between atoms: _246  and  _248
REMARK  102  A    between atoms: _248  and  _249
REMARK  103  A    between atoms: _251  and  _253
REMARK  104  A    between atoms: _253  and  _254
REMARK  105  A    between atoms: _253  and  _256
REMARK  106  A    between atoms: _256  and  _257
REMARK  107  A    between atoms: _257  and  _258
REMARK  108  A    between atoms: _258  and  _259
REMARK  109  A    between atoms: _268  and  _270
REMARK  110  A    between atoms: _270  and  _271
REMARK  111  A    between atoms: _270  and  _273
REMARK  112  A    between atoms: _273  and  _274
REMARK  113  A    between atoms: _279  and  _281
REMARK  114  A    between atoms: _281  and  _282
REMARK  115  A    between atoms: _281  and  _284
REMARK  116  A    between atoms: _284  and  _285
REMARK  117  A    between atoms: _285  and  _286
REMARK  118  A    between atoms: _286  and  _287
REMARK  119  A    between atoms: _296  and  _298
REMARK  120  A    between atoms: _298  and  _299
REMARK  121  A    between atoms: _298  and  _301
REMARK  122  A    between atoms: _301  and  _302
REMARK  123  A    between atoms: _305  and  _307
REMARK  124  A    between atoms: _307  and  _308
REMARK  125  A    between atoms: _307  and  _310
REMARK  126  A    between atoms: _310  and  _311
REMARK  127  A    between atoms: _314  and  _316
REMARK  128  A    between atoms: _316  and  _317
REMARK  129  A    between atoms: _316  and  _319
REMARK  130  A    between atoms: _319  and  _320
REMARK  131  A    between atoms: _323  and  _325
REMARK  132  A    between atoms: _325  and  _326
REMARK  133  A    between atoms: _325  and  _328
REMARK  134  A    between atoms: _328  and  _329
REMARK  135  A    between atoms: _332  and  _334
REMARK  136  A    between atoms: _334  and  _335
REMARK  137  A    between atoms: _337  and  _339
REMARK  138  A    between atoms: _339  and  _340
REMARK  139  A    between atoms: _343  and  _345
REMARK  140  A    between atoms: _345  and  _346
REMARK  141  A    between atoms: _345  and  _348
REMARK  142  A    between atoms: _348  and  _349
REMARK  143  A    between atoms: _352  and  _354
REMARK  144  A    between atoms: _354  and  _355
REMARK  145  A    between atoms: _354  and  _357
REMARK  146  A    between atoms: _357  and  _358
REMARK  147  A    between atoms: _361  and  _363
REMARK  148  A    between atoms: _363  and  _364
REMARK  149  A    between atoms: _363  and  _366
REMARK  150  A    between atoms: _366  and  _367
REMARK  151  A    between atoms: _370  and  _372
REMARK  152  A    between atoms: _372  and  _373
REMARK  153  A    between atoms: _372  and  _375
REMARK  154  A    between atoms: _378  and  _380
REMARK  155  A    between atoms: _380  and  _381
REMARK  156  A    between atoms: _380  and  _383
REMARK  157  A    between atoms: _384  and  _385
REMARK  158  A    between atoms: _385  and  _386
REMARK  159  A    between atoms: _386  and  _387
REMARK  160  A    between atoms: _391  and  _393
REMARK  161  A    between atoms: _393  and  _394
REMARK  162  A    between atoms: _393  and  _396
REMARK  163  A    between atoms: _396  and  _397
REMARK  164  A    between atoms: _397  and  _398
REMARK  165  A    between atoms: _400  and  _402
REMARK  166  A    between atoms: _402  and  _403
REMARK  167  A    between atoms: _402  and  _405
REMARK  168  A    between atoms: _405  and  _406
REMARK  169  A    between atoms: _409  and  _411
REMARK  170  A    between atoms: _411  and  _412
REMARK  171  A    between atoms: _414  and  _416
REMARK  172  A    between atoms: _416  and  _417
REMARK  173  A    between atoms: _419  and  _421
REMARK  174  A    between atoms: _421  and  _422
REMARK  175  A    between atoms: _421  and  _424
REMARK  176  A    between atoms: _424  and  _425
REMARK  177  A    between atoms: _428  and  _430
REMARK  178  A    between atoms: _430  and  _431
REMARK  179  A    between atoms: _433  and  _435
REMARK  180  A    between atoms: _435  and  _436
REMARK  181  A    between atoms: _438  and  _440
REMARK  182  A    between atoms: _440  and  _441
REMARK  183  A    between atoms: _440  and  _443
REMARK  184  A    between atoms: _443  and  _444
REMARK  185  A    between atoms: _450  and  _452
REMARK  186  A    between atoms: _452  and  _453
REMARK  187  A    between atoms: _452  and  _455
REMARK  188  A    between atoms: _455  and  _456
REMARK  189  A    between atoms: _459  and  _461
REMARK  190  A    between atoms: _461  and  _462
REMARK  191  A    between atoms: _461  and  _464
REMARK  192  A    between atoms: _467  and  _469
REMARK  193  A    between atoms: _469  and  _470
REMARK  194  A    between atoms: _469  and  _472
REMARK  195  A    between atoms: _472  and  _473
REMARK  196  A    between atoms: _476  and  _478
REMARK  197  A    between atoms: _478  and  _479
REMARK  198  A    between atoms: _478  and  _481
REMARK  199  A    between atoms: _481  and  _482
REMARK  200  A    between atoms: _486  and  _487
REMARK  201  A    between atoms: _492  and  _494
REMARK  202  A    between atoms: _494  and  _495
REMARK  203  A    between atoms: _494  and  _497
REMARK  204  A    between atoms: _500  and  _502
REMARK  205  A    between atoms: _502  and  _503
REMARK  206  A    between atoms: _502  and  _505
REMARK  207  A    between atoms: _505  and  _506
REMARK  208  A    between atoms: _511  and  _513
REMARK  209  A    between atoms: _513  and  _514
REMARK  210  A    between atoms: _513  and  _516
REMARK  211  A    between atoms: _516  and  _517
REMARK  212  A    between atoms: _520  and  _522
REMARK  213  A    between atoms: _522  and  _523
REMARK  214  A    between atoms: _522  and  _525
REMARK  215  A    between atoms: _525  and  _526
REMARK  216  A    between atoms: _529  and  _531
REMARK  217  A    between atoms: _531  and  _532
REMARK  218  A    between atoms: _534  and  _536
REMARK  219  A    between atoms: _536  and  _537
REMARK  220  A    between atoms: _536  and  _539
REMARK  221  A    between atoms: _539  and  _540
REMARK  222  A    between atoms: _540  and  _541
REMARK  223  A    between atoms: _541  and  _542
REMARK  224  A    between atoms: _551  and  _553
REMARK  225  A    between atoms: _553  and  _554
REMARK  226  A    between atoms: _553  and  _556
REMARK  227  A    between atoms: _556  and  _557
REMARK                            x       y       z     vdW  Elec       q    Type
REMARK                         _______ _______ _______ _____ _____    ______ ____
ROOT
ATOM      1  O   HOH     1      23.298  27.962  15.634  0.00  0.00    +0.000 OA
ENDROOT
TORSDOF 0
REMARK  Name = ../refined-set-2016/3a2o/3a2o_pocket.pdb
REMARK  227 active torsions:
REMARK  status: ('A' for Active; 'I' for Inactive)
REMARK    1  A    between atoms: _1  and  _3
REMARK    2  A    between atoms: _3  and  _4
REMARK    3  A    between atoms: _3  and  _6
REMARK    4  A    between atoms: _6  and  _7
REMARK    5  A    between atoms: _7  and  _8
REMARK    6  A    between atoms: _8  and  _9
REMARK    7  A    between atoms: _18  and  _20
REMARK    8  A    between atoms: _20  and  _21
REMARK    9  A    between atoms: _20  and  _23
REMARK   10  A    between atoms: _23  and  _24
REMARK   11  A    between atoms: _27  and  _29
REMARK   12  A    between atoms: _29  and  _30
REMARK   13  A    between atoms: _29  and  _32
REMARK   14  A    between atoms: _32  and  _33
REMARK   15  A    between atoms: _36  and  _38
REMARK   16  A    between atoms: _38  and  _39
REMARK   17  A    between atoms: _38  and  _41
REMARK   18  A    between atoms: _41  and  _42
REMARK   19  A    between atoms: _45  and  _47
REMARK   20  A    between atoms: _47  and  _48
REMARK   21  A    between atoms: _47  and  _50
REMARK   22  A    between atoms: _50  and  _51
REMARK   23  A    between atoms: _54  and  _56
REMARK   24  A    between atoms: _56  and  _57
REMARK   25  A    between atoms: _59  and  _61
REMARK   26  A    between atoms: _61  and  _62
REMARK   27  A    between atoms: _65  and  _67
REMARK   28  A    between atoms: _67  and  _68
REMARK   29  A    between atoms: _67  and  _70
REMARK   30  A    between atoms: _70  and  _71
REMARK   31  A    between atoms: _74  and  _76
REMARK   32  A    between atoms: _76  and  _77
REMARK   33  A    between atoms: _76  and  _79
REMARK   34  A    between atoms: _79  and  _80
REMARK   35  A    between atoms: _83  and  _85
REMARK   36  A    between atoms: _85  and  _86
REMARK   37  A    between atoms: _85  and  _88
REMARK   38  A    between atoms: _88  and  _89
REMARK   39  A    between atoms: _92  and  _94
REMARK   40  A    between atoms: _94  and  _95
REMARK   41  A    between atoms: _94  and  _97
REMARK   42  A    between atoms: _100  and  _102
REMARK   43  A    between atoms: _102  and  _103
REMARK   44  A    between atoms: _102  and  _105
REMARK   45  A    between atoms: _106  and  _107
REMARK   46  A    between atoms: _107  and  _108
REMARK   47  A    between atoms: _108  and  _109
REMARK   48  A    between atoms: _113  and  _115
REMARK   49  A    between atoms: _115  and  _116
REMARK   50  A    between atoms: _115  and  _118
REMARK   51  A    between atoms: _118  and  _119
REMARK   52  A    between atoms: _119  and  _120
REMARK   53  A    between atoms: _122  and  _124
REMARK   54  A    between atoms: _124  and  _125
REMARK   55  A    between atoms: _124  and  _127
REMARK   56  A    between atoms: _127  and  _128
REMARK   57  A    between atoms: _131  and  _133
REMARK   58  A    between atoms: _133  and  _134
REMARK   59  A    between atoms: _136  and  _138
REMARK   60  A    between atoms: _138  and  _139
REMARK   61  A    between atoms: _141  and  _143
REMARK   62  A    between atoms: _143  and  _144
REMARK   63  A    between atoms: _143  and  _146
REMARK   64  A    between atoms: _146  and  _147
REMARK   65  A    between atoms: _150  and  _152
REMARK   66  A    between atoms: _152  and  _153
REMARK   67  A    between atoms: _155  and  _157
REMARK   68  A    between atoms: _157  and  _158
REMARK   69  A    between atoms: _160  and  _162
REMARK   70  A    between atoms: _162  and  _163
REMARK   71  A    between atoms: _162  and  _165
REMARK   72  A    between atoms: _165  and  _166
REMARK   73  A    between atoms: _169  and  _171
REMARK   74  A    between atoms: _171  and  _172
REMARK   75  A    between atoms: _171  and  _174
REMARK   76  A    between atoms: _177  and  _179
REMARK   77  A    between atoms: _179  and  _180
REMARK   78  A    between atoms: _179  and  _182
REMARK   79  A    between atoms: _182  and  _183
REMARK   80  A    between atoms: _187  and  _188
REMARK   81  A    between atoms: _193  and  _195
REMARK   82  A    between atoms: _195  and  _196
REMARK   83  A    between atoms: _195  and  _198
REMARK   84  A    between atoms: _198  and  _199
REMARK   85  A    between atoms: _203  and  _204
REMARK   86  A    between atoms: _209  and  _211
REMARK   87  A    between atoms: _211  and  _212
REMARK   88  A    between atoms: _211  and  _214
REMARK   89  A    between atoms: _217  and  _219
REMARK   90  A    between atoms: _219  and  _220
REMARK   91  A    between atoms: _219  and  _222
REMARK   92  A    between atoms: _222  and  _223
REMARK   93  A    between atoms: _228  and  _230
REMARK   94  A    between atoms: _230  and  _231
REMARK   95  A    between atoms: _230  and  _233
REMARK   96  A    between atoms: _233  and  _234
REMARK   97  A    between atoms: _237  and  _239
REMARK   98  A    between atoms: _239  and  _240
REMARK   99  A    between atoms: _239  and  _242
REMARK  100  A    between atoms: _242  and  _243
REMARK  101  A    between atoms: _246  and  _248
REMARK  102  A    between atoms: _248  and  _249
REMARK  103  A    between atoms: _251  and  _253
REMARK  104  A    between atoms: _253  and  _254
REMARK  105  A    between atoms: _253  and  _256
REMARK  106  A    between atoms: _256  and  _257
REMARK  107  A    between atoms: _257  and  _258
REMARK  108  A    between atoms: _258  and  _259
REMARK  109  A    between atoms: _268  and  _270
REMARK  110  A    between atoms: _270  and  _271
REMARK  111  A    between atoms: _270  and  _273
REMARK  112  A    between atoms: _273  and  _274
REMARK  113  A    between atoms: _279  and  _281
REMARK  114  A    between atoms: _281  and  _282
REMARK  115  A    between atoms: _281  and  _284
REMARK  116  A    between atoms: _284  and  _285
REMARK  117  A    between atoms: _285  and  _286
REMARK  118  A    between atoms: _286  and  _287
REMARK  119  A    between atoms: _296  and  _298
REMARK  120  A    between atoms: _298  and  _299
REMARK  121  A    between atoms: _298  and  _301
REMARK  122  A    between atoms: _301  and  _302
REMARK  123  A    between atoms: _305  and  _307
REMARK  124  A    between atoms: _307  and  _308
REMARK  125  A    between atoms: _307  and  _310
REMARK  126  A    between atoms: _310  and  _311
REMARK  127  A    between atoms: _314  and  _316
REMARK  128  A    between atoms: _316  and  _317
REMARK  129  A    between atoms: _316  and  _319
REMARK  130  A    between atoms: _319  and  _320
REMARK  131  A    between atoms: _323  and  _325
REMARK  132  A    between atoms: _325  and  _326
REMARK  133  A    between atoms: _325  and  _328
REMARK  134  A    between atoms: _328  and  _329
REMARK  135  A    between atoms: _332  and  _334
REMARK  136  A    between atoms: _334  and  _335
REMARK  137  A    between atoms: _337  and  _339
REMARK  138  A    between atoms: _339  and  _340
REMARK  139  A    between atoms: _343  and  _345
REMARK  140  A    between atoms: _345  and  _346
REMARK  141  A    between atoms: _345  and  _348
REMARK  142  A    between atoms: _348  and  _349
REMARK  143  A    between atoms: _352  and  _354
REMARK  144  A    between atoms: _354  and  _355
REMARK  145  A    between atoms: _354  and  _357
REMARK  146  A    between atoms: _357  and  _358
REMARK  147  A    between atoms: _361  and  _363
REMARK  148  A    between atoms: _363  and  _364
REMARK  149  A    between atoms: _363  and  _366
REMARK  150  A    between atoms: _366  and  _367
REMARK  151  A    between atoms: _370  and  _372
REMARK  152  A    between atoms: _372  and  _373
REMARK  153  A    between atoms: _372  and  _375
REMARK  154  A    between atoms: _378  and  _380
REMARK  155  A    between atoms: _380  and  _381
REMARK  156  A    between atoms: _380  and  _383
REMARK  157  A    between atoms: _384  and  _385
REMARK  158  A    between atoms: _385  and  _386
REMARK  159  A    between atoms: _386  and  _387
REMARK  160  A    between atoms: _391  and  _393
REMARK  161  A    between atoms: _393  and  _394
REMARK  162  A    between atoms: _393  and  _396
REMARK  163  A    between atoms: _396  and  _397
REMARK  164  A    between atoms: _397  and  _398
REMARK  165  A    between atoms: _400  and  _402
REMARK  166  A    between atoms: _402  and  _403
REMARK  167  A    between atoms: _402  and  _405
REMARK  168  A    between atoms: _405  and  _406
REMARK  169  A    between atoms: _409  and  _411
REMARK  170  A    between atoms: _411  and  _412
REMARK  171  A    between atoms: _414  and  _416
REMARK  172  A    between atoms: _416  and  _417
REMARK  173  A    between atoms: _419  and  _421
REMARK  174  A    between atoms: _421  and  _422
REMARK  175  A    between atoms: _421  and  _424
REMARK  176  A    between atoms: _424  and  _425
REMARK  177  A    between atoms: _428  and  _430
REMARK  178  A    between atoms: _430  and  _431
REMARK  179  A    between atoms: _433  and  _435
REMARK  180  A    between atoms: _435  and  _436
REMARK  181  A    between atoms: _438  and  _440
REMARK  182  A    between atoms: _440  and  _441
REMARK  183  A    between atoms: _440  and  _443
REMARK  184  A    between atoms: _443  and  _444
REMARK  185  A    between atoms: _450  and  _452
REMARK  186  A    between atoms: _452  and  _453
REMARK  187  A    between atoms: _452  and  _455
REMARK  188  A    between atoms: _455  and  _456
REMARK  189  A    between atoms: _459  and  _461
REMARK  190  A    between atoms: _461  and  _462
REMARK  191  A    between atoms: _461  and  _464
REMARK  192  A    between atoms: _467  and  _469
REMARK  193  A    between atoms: _469  and  _470
REMARK  194  A    between atoms: _469  and  _472
REMARK  195  A    between atoms: _472  and  _473
REMARK  196  A    between atoms: _476  and  _478
REMARK  197  A    between atoms: _478  and  _479
REMARK  198  A    between atoms: _478  and  _481
REMARK  199  A    between atoms: _481  and  _482
REMARK  200  A    between atoms: _486  and  _487
REMARK  201  A    between atoms: _492  and  _494
REMARK  202  A    between atoms: _494  and  _495
REMARK  203  A    between atoms: _494  and  _497
REMARK  204  A    between atoms: _500  and  _502
REMARK  205  A    between atoms: _502  and  _503
REMARK  206  A    between atoms: _502  and  _505
REMARK  207  A    between atoms: _505  and  _506
REMARK  208  A    between atoms: _511  and  _513
REMARK  209  A    between atoms: _513  and  _514
REMARK  210  A    between atoms: _513  and  _516
REMARK  211  A    between atoms: _516  and  _517
REMARK  212  A    between atoms: _520  and  _522
REMARK  213  A    between atoms: _522  and  _523
REMARK  214  A    between atoms: _522  and  _525
REMARK  215  A    between atoms: _525  and  _526
REMARK  216  A    between atoms: _529  and  _531
REMARK  217  A    between atoms: _531  and  _532
REMARK  218  A    between atoms: _534  and  _536
REMARK  219  A    between atoms: _536  and  _537
REMARK  220  A    between atoms: _536  and  _539
REMARK  221  A    between atoms: _539  and  _540
REMARK  222  A    between atoms: _540  and  _541
REMARK  223  A    between atoms: _541  and  _542
REMARK  224  A    between atoms: _551  and  _553
REMARK  225  A    between atoms: _553  and  _554
REMARK  226  A    between atoms: _553  and  _556
REMARK  227  A    between atoms: _556  and  _557
REMARK                            x       y       z     vdW  Elec       q    Type
REMARK                         _______ _______ _______ _____ _____    ______ ____
ROOT
ATOM      1  O   HOH     1      25.550  26.326  19.703  0.00  0.00    +0.000 OA
ENDROOT
TORSDOF 0
REMARK  Name = ../refined-set-2016/3a2o/3a2o_pocket.pdb
REMARK  227 active torsions:
REMARK  status: ('A' for Active; 'I' for Inactive)
REMARK    1  A    between atoms: _1  and  _3
REMARK    2  A    between atoms: _3  and  _4
REMARK    3  A    between atoms: _3  and  _6
REMARK    4  A    between atoms: _6  and  _7
REMARK    5  A    between atoms: _7  and  _8
REMARK    6  A    between atoms: _8  and  _9
REMARK    7  A    between atoms: _18  and  _20
REMARK    8  A    between atoms: _20  and  _21
REMARK    9  A    between atoms: _20  and  _23
REMARK   10  A    between atoms: _23  and  _24
REMARK   11  A    between atoms: _27  and  _29
REMARK   12  A    between atoms: _29  and  _30
REMARK   13  A    between atoms: _29  and  _32
REMARK   14  A    between atoms: _32  and  _33
REMARK   15  A    between atoms: _36  and  _38
REMARK   16  A    between atoms: _38  and  _39
REMARK   17  A    between atoms: _38  and  _41
REMARK   18  A    between atoms: _41  and  _42
REMARK   19  A    between atoms: _45  and  _47
REMARK   20  A    between atoms: _47  and  _48
REMARK   21  A    between atoms: _47  and  _50
REMARK   22  A    between atoms: _50  and  _51
REMARK   23  A    between atoms: _54  and  _56
REMARK   24  A    between atoms: _56  and  _57
REMARK   25  A    between atoms: _59  and  _61
REMARK   26  A    between atoms: _61  and  _62
REMARK   27  A    between atoms: _65  and  _67
REMARK   28  A    between atoms: _67  and  _68
REMARK   29  A    between atoms: _67  and  _70
REMARK   30  A    between atoms: _70  and  _71
REMARK   31  A    between atoms: _74  and  _76
REMARK   32  A    between atoms: _76  and  _77
REMARK   33  A    between atoms: _76  and  _79
REMARK   34  A    between atoms: _79  and  _80
REMARK   35  A    between atoms: _83  and  _85
REMARK   36  A    between atoms: _85  and  _86
REMARK   37  A    between atoms: _85  and  _88
REMARK   38  A    between atoms: _88  and  _89
REMARK   39  A    between atoms: _92  and  _94
REMARK   40  A    between atoms: _94  and  _95
REMARK   41  A    between atoms: _94  and  _97
REMARK   42  A    between atoms: _100  and  _102
REMARK   43  A    between atoms: _102  and  _103
REMARK   44  A    between atoms: _102  and  _105
REMARK   45  A    between atoms: _106  and  _107
REMARK   46  A    between atoms: _107  and  _108
REMARK   47  A    between atoms: _108  and  _109
REMARK   48  A    between atoms: _113  and  _115
REMARK   49  A    between atoms: _115  and  _116
REMARK   50  A    between atoms: _115  and  _118
REMARK   51  A    between atoms: _118  and  _119
REMARK   52  A    between atoms: _119  and  _120
REMARK   53  A    between atoms: _122  and  _124
REMARK   54  A    between atoms: _124  and  _125
REMARK   55  A    between atoms: _124  and  _127
REMARK   56  A    between atoms: _127  and  _128
REMARK   57  A    between atoms: _131  and  _133
REMARK   58  A    between atoms: _133  and  _134
REMARK   59  A    between atoms: _136  and  _138
REMARK   60  A    between atoms: _138  and  _139
REMARK   61  A    between atoms: _141  and  _143
REMARK   62  A    between atoms: _143  and  _144
REMARK   63  A    between atoms: _143  and  _146
REMARK   64  A    between atoms: _146  and  _147
REMARK   65  A    between atoms: _150  and  _152
REMARK   66  A    between atoms: _152  and  _153
REMARK   67  A    between atoms: _155  and  _157
REMARK   68  A    between atoms: _157  and  _158
REMARK   69  A    between atoms: _160  and  _162
REMARK   70  A    between atoms: _162  and  _163
REMARK   71  A    between atoms: _162  and  _165
REMARK   72  A    between atoms: _165  and  _166
REMARK   73  A    between atoms: _169  and  _171
REMARK   74  A    between atoms: _171  and  _172
REMARK   75  A    between atoms: _171  and  _174
REMARK   76  A    between atoms: _177  and  _179
REMARK   77  A    between atoms: _179  and  _180
REMARK   78  A    between atoms: _179  and  _182
REMARK   79  A    between atoms: _182  and  _183
REMARK   80  A    between atoms: _187  and  _188
REMARK   81  A    between atoms: _193  and  _195
REMARK   82  A    between atoms: _195  and  _196
REMARK   83  A    between atoms: _195  and  _198
REMARK   84  A    between atoms: _198  and  _199
REMARK   85  A    between atoms: _203  and  _204
REMARK   86  A    between atoms: _209  and  _211
REMARK   87  A    between atoms: _211  and  _212
REMARK   88  A    between atoms: _211  and  _214
REMARK   89  A    between atoms: _217  and  _219
REMARK   90  A    between atoms: _219  and  _220
REMARK   91  A    between atoms: _219  and  _222
REMARK   92  A    between atoms: _222  and  _223
REMARK   93  A    between atoms: _228  and  _230
REMARK   94  A    between atoms: _230  and  _231
REMARK   95  A    between atoms: _230  and  _233
REMARK   96  A    between atoms: _233  and  _234
REMARK   97  A    between atoms: _237  and  _239
REMARK   98  A    between atoms: _239  and  _240
REMARK   99  A    between atoms: _239  and  _242
REMARK  100  A    between atoms: _242  and  _243
REMARK  101  A    between atoms: _246  and  _248
REMARK  102  A    between atoms: _248  and  _249
REMARK  103  A    between atoms: _251  and  _253
REMARK  104  A    between atoms: _253  and  _254
REMARK  105  A    between atoms: _253  and  _256
REMARK  106  A    between atoms: _256  and  _257
REMARK  107  A    between atoms: _257  and  _258
REMARK  108  A    between atoms: _258  and  _259
REMARK  109  A    between atoms: _268  and  _270
REMARK  110  A    between atoms: _270  and  _271
REMARK  111  A    between atoms: _270  and  _273
REMARK  112  A    between atoms: _273  and  _274
REMARK  113  A    between atoms: _279  and  _281
REMARK  114  A    between atoms: _281  and  _282
REMARK  115  A    between atoms: _281  and  _284
REMARK  116  A    between atoms: _284  and  _285
REMARK  117  A    between atoms: _285  and  _286
REMARK  118  A    between atoms: _286  and  _287
REMARK  119  A    between atoms: _296  and  _298
REMARK  120  A    between atoms: _298  and  _299
REMARK  121  A    between atoms: _298  and  _301
REMARK  122  A    between atoms: _301  and  _302
REMARK  123  A    between atoms: _305  and  _307
REMARK  124  A    between atoms: _307  and  _308
REMARK  125  A    between atoms: _307  and  _310
REMARK  126  A    between atoms: _310  and  _311
REMARK  127  A    between atoms: _314  and  _316
REMARK  128  A    between atoms: _316  and  _317
REMARK  129  A    between atoms: _316  and  _319
REMARK  130  A    between atoms: _319  and  _320
REMARK  131  A    between atoms: _323  and  _325
REMARK  132  A    between atoms: _325  and  _326
REMARK  133  A    between atoms: _325  and  _328
REMARK  134  A    between atoms: _328  and  _329
REMARK  135  A    between atoms: _332  and  _334
REMARK  136  A    between atoms: _334  and  _335
REMARK  137  A    between atoms: _337  and  _339
REMARK  138  A    between atoms: _339  and  _340
REMARK  139  A    between atoms: _343  and  _345
REMARK  140  A    between atoms: _345  and  _346
REMARK  141  A    between atoms: _345  and  _348
REMARK  142  A    between atoms: _348  and  _349
REMARK  143  A    between atoms: _352  and  _354
REMARK  144  A    between atoms: _354  and  _355
REMARK  145  A    between atoms: _354  and  _357
REMARK  146  A    between atoms: _357  and  _358
REMARK  147  A    between atoms: _361  and  _363
REMARK  148  A    between atoms: _363  and  _364
REMARK  149  A    between atoms: _363  and  _366
REMARK  150  A    between atoms: _366  and  _367
REMARK  151  A    between atoms: _370  and  _372
REMARK  152  A    between atoms: _372  and  _373
REMARK  153  A    between atoms: _372  and  _375
REMARK  154  A    between atoms: _378  and  _380
REMARK  155  A    between atoms: _380  and  _381
REMARK  156  A    between atoms: _380  and  _383
REMARK  157  A    between atoms: _384  and  _385
REMARK  158  A    between atoms: _385  and  _386
REMARK  159  A    between atoms: _386  and  _387
REMARK  160  A    between atoms: _391  and  _393
REMARK  161  A    between atoms: _393  and  _394
REMARK  162  A    between atoms: _393  and  _396
REMARK  163  A    between atoms: _396  and  _397
REMARK  164  A    between atoms: _397  and  _398
REMARK  165  A    between atoms: _400  and  _402
REMARK  166  A    between atoms: _402  and  _403
REMARK  167  A    between atoms: _402  and  _405
REMARK  168  A    between atoms: _405  and  _406
REMARK  169  A    between atoms: _409  and  _411
REMARK  170  A    between atoms: _411  and  _412
REMARK  171  A    between atoms: _414  and  _416
REMARK  172  A    between atoms: _416  and  _417
REMARK  173  A    between atoms: _419  and  _421
REMARK  174  A    between atoms: _421  and  _422
REMARK  175  A    between atoms: _421  and  _424
REMARK  176  A    between atoms: _424  and  _425
REMARK  177  A    between atoms: _428  and  _430
REMARK  178  A    between atoms: _430  and  _431
REMARK  179  A    between atoms: _433  and  _435
REMARK  180  A    between atoms: _435  and  _436
REMARK  181  A    between atoms: _438  and  _440
REMARK  182  A    between atoms: _440  and  _441
REMARK  183  A    between atoms: _440  and  _443
REMARK  184  A    between atoms: _443  and  _444
REMARK  185  A    between atoms: _450  and  _452
REMARK  186  A    between atoms: _452  and  _453
REMARK  187  A    between atoms: _452  and  _455
REMARK  188  A    between atoms: _455  and  _456
REMARK  189  A    between atoms: _459  and  _461
REMARK  190  A    between atoms: _461  and  _462
REMARK  191  A    between atoms: _461  and  _464
REMARK  192  A    between atoms: _467  and  _469
REMARK  193  A    between atoms: _469  and  _470
REMARK  194  A    between atoms: _469  and  _472
REMARK  195  A    between atoms: _472  and  _473
REMARK  196  A    between atoms: _476  and  _478
REMARK  197  A    between atoms: _478  and  _479
REMARK  198  A    between atoms: _478  and  _481
REMARK  199  A    between atoms: _481  and  _482
REMARK  200  A    between atoms: _486  and  _487
REMARK  201  A    between atoms: _492  and  _494
REMARK  202  A    between atoms: _494  and  _495
REMARK  203  A    between atoms: _494  and  _497
REMARK  204  A    between atoms: _500  and  _502
REMARK  205  A    between atoms: _502  and  _503
REMARK  206  A    between atoms: _502  and  _505
REMARK  207  A    between atoms: _505  and  _506
REMARK  208  A    between atoms: _511  and  _513
REMARK  209  A    between atoms: _513  and  _514
REMARK  210  A    between atoms: _513  and  _516
REMARK  211  A    between atoms: _516  and  _517
REMARK  212  A    between atoms: _520  and  _522
REMARK  213  A    between atoms: _522  and  _523
REMARK  214  A    between atoms: _522  and  _525
REMARK  215  A    between atoms: _525  and  _526
REMARK  216  A    between atoms: _529  and  _531
REMARK  217  A    between atoms: _531  and  _532
REMARK  218  A    between atoms: _534  and  _536
REMARK  219  A    between atoms: _536  and  _537
REMARK  220  A    between atoms: _536  and  _539
REMARK  221  A    between atoms: _539  and  _540
REMARK  222  A    between atoms: _540  and  _541
REMARK  223  A    between atoms: _541  and  _542
REMARK  224  A    between atoms: _551  and  _553
REMARK  225  A    between atoms: _553  and  _554
REMARK  226  A    between atoms: _553  and  _556
REMARK  227  A    between atoms: _556  and  _557
REMARK                            x       y       z     vdW  Elec       q    Type
REMARK                         _______ _______ _______ _____ _____    ______ ____
ROOT
ATOM      1  O   HOH     1      22.810  34.336  12.239  0.00  0.00    +0.000 OA
ENDROOT
TORSDOF 0
REMARK  Name = ../refined-set-2016/3a2o/3a2o_pocket.pdb
REMARK  227 active torsions:
REMARK  status: ('A' for Active; 'I' for Inactive)
REMARK    1  A    between atoms: _1  and  _3
REMARK    2  A    between atoms: _3  and  _4
REMARK    3  A    between atoms: _3  and  _6
REMARK    4  A    between atoms: _6  and  _7
REMARK    5  A    between atoms: _7  and  _8
REMARK    6  A    between atoms: _8  and  _9
REMARK    7  A    between atoms: _18  and  _20
REMARK    8  A    between atoms: _20  and  _21
REMARK    9  A    between atoms: _20  and  _23
REMARK   10  A    between atoms: _23  and  _24
REMARK   11  A    between atoms: _27  and  _29
REMARK   12  A    between atoms: _29  and  _30
REMARK   13  A    between atoms: _29  and  _32
REMARK   14  A    between atoms: _32  and  _33
REMARK   15  A    between atoms: _36  and  _38
REMARK   16  A    between atoms: _38  and  _39
REMARK   17  A    between atoms: _38  and  _41
REMARK   18  A    between atoms: _41  and  _42
REMARK   19  A    between atoms: _45  and  _47
REMARK   20  A    between atoms: _47  and  _48
REMARK   21  A    between atoms: _47  and  _50
REMARK   22  A    between atoms: _50  and  _51
REMARK   23  A    between atoms: _54  and  _56
REMARK   24  A    between atoms: _56  and  _57
REMARK   25  A    between atoms: _59  and  _61
REMARK   26  A    between atoms: _61  and  _62
REMARK   27  A    between atoms: _65  and  _67
REMARK   28  A    between atoms: _67  and  _68
REMARK   29  A    between atoms: _67  and  _70
REMARK   30  A    between atoms: _70  and  _71
REMARK   31  A    between atoms: _74  and  _76
REMARK   32  A    between atoms: _76  and  _77
REMARK   33  A    between atoms: _76  and  _79
REMARK   34  A    between atoms: _79  and  _80
REMARK   35  A    between atoms: _83  and  _85
REMARK   36  A    between atoms: _85  and  _86
REMARK   37  A    between atoms: _85  and  _88
REMARK   38  A    between atoms: _88  and  _89
REMARK   39  A    between atoms: _92  and  _94
REMARK   40  A    between atoms: _94  and  _95
REMARK   41  A    between atoms: _94  and  _97
REMARK   42  A    between atoms: _100  and  _102
REMARK   43  A    between atoms: _102  and  _103
REMARK   44  A    between atoms: _102  and  _105
REMARK   45  A    between atoms: _106  and  _107
REMARK   46  A    between atoms: _107  and  _108
REMARK   47  A    between atoms: _108  and  _109
REMARK   48  A    between atoms: _113  and  _115
REMARK   49  A    between atoms: _115  and  _116
REMARK   50  A    between atoms: _115  and  _118
REMARK   51  A    between atoms: _118  and  _119
REMARK   52  A    between atoms: _119  and  _120
REMARK   53  A    between atoms: _122  and  _124
REMARK   54  A    between atoms: _124  and  _125
REMARK   55  A    between atoms: _124  and  _127
REMARK   56  A    between atoms: _127  and  _128
REMARK   57  A    between atoms: _131  and  _133
REMARK   58  A    between atoms: _133  and  _134
REMARK   59  A    between atoms: _136  and  _138
REMARK   60  A    between atoms: _138  and  _139
REMARK   61  A    between atoms: _141  and  _143
REMARK   62  A    between atoms: _143  and  _144
REMARK   63  A    between atoms: _143  and  _146
REMARK   64  A    between atoms: _146  and  _147
REMARK   65  A    between atoms: _150  and  _152
REMARK   66  A    between atoms: _152  and  _153
REMARK   67  A    between atoms: _155  and  _157
REMARK   68  A    between atoms: _157  and  _158
REMARK   69  A    between atoms: _160  and  _162
REMARK   70  A    between atoms: _162  and  _163
REMARK   71  A    between atoms: _162  and  _165
REMARK   72  A    between atoms: _165  and  _166
REMARK   73  A    between atoms: _169  and  _171
REMARK   74  A    between atoms: _171  and  _172
REMARK   75  A    between atoms: _171  and  _174
REMARK   76  A    between atoms: _177  and  _179
REMARK   77  A    between atoms: _179  and  _180
REMARK   78  A    between atoms: _179  and  _182
REMARK   79  A    between atoms: _182  and  _183
REMARK   80  A    between atoms: _187  and  _188
REMARK   81  A    between atoms: _193  and  _195
REMARK   82  A    between atoms: _195  and  _196
REMARK   83  A    between atoms: _195  and  _198
REMARK   84  A    between atoms: _198  and  _199
REMARK   85  A    between atoms: _203  and  _204
REMARK   86  A    between atoms: _209  and  _211
REMARK   87  A    between atoms: _211  and  _212
REMARK   88  A    between atoms: _211  and  _214
REMARK   89  A    between atoms: _217  and  _219
REMARK   90  A    between atoms: _219  and  _220
REMARK   91  A    between atoms: _219  and  _222
REMARK   92  A    between atoms: _222  and  _223
REMARK   93  A    between atoms: _228  and  _230
REMARK   94  A    between atoms: _230  and  _231
REMARK   95  A    between atoms: _230  and  _233
REMARK   96  A    between atoms: _233  and  _234
REMARK   97  A    between atoms: _237  and  _239
REMARK   98  A    between atoms: _239  and  _240
REMARK   99  A    between atoms: _239  and  _242
REMARK  100  A    between atoms: _242  and  _243
REMARK  101  A    between atoms: _246  and  _248
REMARK  102  A    between atoms: _248  and  _249
REMARK  103  A    between atoms: _251  and  _253
REMARK  104  A    between atoms: _253  and  _254
REMARK  105  A    between atoms: _253  and  _256
REMARK  106  A    between atoms: _256  and  _257
REMARK  107  A    between atoms: _257  and  _258
REMARK  108  A    between atoms: _258  and  _259
REMARK  109  A    between atoms: _268  and  _270
REMARK  110  A    between atoms: _270  and  _271
REMARK  111  A    between atoms: _270  and  _273
REMARK  112  A    between atoms: _273  and  _274
REMARK  113  A    between atoms: _279  and  _281
REMARK  114  A    between atoms: _281  and  _282
REMARK  115  A    between atoms: _281  and  _284
REMARK  116  A    between atoms: _284  and  _285
REMARK  117  A    between atoms: _285  and  _286
REMARK  118  A    between atoms: _286  and  _287
REMARK  119  A    between atoms: _296  and  _298
REMARK  120  A    between atoms: _298  and  _299
REMARK  121  A    between atoms: _298  and  _301
REMARK  122  A    between atoms: _301  and  _302
REMARK  123  A    between atoms: _305  and  _307
REMARK  124  A    between atoms: _307  and  _308
REMARK  125  A    between atoms: _307  and  _310
REMARK  126  A    between atoms: _310  and  _311
REMARK  127  A    between atoms: _314  and  _316
REMARK  128  A    between atoms: _316  and  _317
REMARK  129  A    between atoms: _316  and  _319
REMARK  130  A    between atoms: _319  and  _320
REMARK  131  A    between atoms: _323  and  _325
REMARK  132  A    between atoms: _325  and  _326
REMARK  133  A    between atoms: _325  and  _328
REMARK  134  A    between atoms: _328  and  _329
REMARK  135  A    between atoms: _332  and  _334
REMARK  136  A    between atoms: _334  and  _335
REMARK  137  A    between atoms: _337  and  _339
REMARK  138  A    between atoms: _339  and  _340
REMARK  139  A    between atoms: _343  and  _345
REMARK  140  A    between atoms: _345  and  _346
REMARK  141  A    between atoms: _345  and  _348
REMARK  142  A    between atoms: _348  and  _349
REMARK  143  A    between atoms: _352  and  _354
REMARK  144  A    between atoms: _354  and  _355
REMARK  145  A    between atoms: _354  and  _357
REMARK  146  A    between atoms: _357  and  _358
REMARK  147  A    between atoms: _361  and  _363
REMARK  148  A    between atoms: _363  and  _364
REMARK  149  A    between atoms: _363  and  _366
REMARK  150  A    between atoms: _366  and  _367
REMARK  151  A    between atoms: _370  and  _372
REMARK  152  A    between atoms: _372  and  _373
REMARK  153  A    between atoms: _372  and  _375
REMARK  154  A    between atoms: _378  and  _380
REMARK  155  A    between atoms: _380  and  _381
REMARK  156  A    between atoms: _380  and  _383
REMARK  157  A    between atoms: _384  and  _385
REMARK  158  A    between atoms: _385  and  _386
REMARK  159  A    between atoms: _386  and  _387
REMARK  160  A    between atoms: _391  and  _393
REMARK  161  A    between atoms: _393  and  _394
REMARK  162  A    between atoms: _393  and  _396
REMARK  163  A    between atoms: _396  and  _397
REMARK  164  A    between atoms: _397  and  _398
REMARK  165  A    between atoms: _400  and  _402
REMARK  166  A    between atoms: _402  and  _403
REMARK  167  A    between atoms: _402  and  _405
REMARK  168  A    between atoms: _405  and  _406
REMARK  169  A    between atoms: _409  and  _411
REMARK  170  A    between atoms: _411  and  _412
REMARK  171  A    between atoms: _414  and  _416
REMARK  172  A    between atoms: _416  and  _417
REMARK  173  A    between atoms: _419  and  _421
REMARK  174  A    between atoms: _421  and  _422
REMARK  175  A    between atoms: _421  and  _424
REMARK  176  A    between atoms: _424  and  _425
REMARK  177  A    between atoms: _428  and  _430
REMARK  178  A    between atoms: _430  and  _431
REMARK  179  A    between atoms: _433  and  _435
REMARK  180  A    between atoms: _435  and  _436
REMARK  181  A    between atoms: _438  and  _440
REMARK  182  A    between atoms: _440  and  _441
REMARK  183  A    between atoms: _440  and  _443
REMARK  184  A    between atoms: _443  and  _444
REMARK  185  A    between atoms: _450  and  _452
REMARK  186  A    between atoms: _452  and  _453
REMARK  187  A    between atoms: _452  and  _455
REMARK  188  A    between atoms: _455  and  _456
REMARK  189  A    between atoms: _459  and  _461
REMARK  190  A    between atoms: _461  and  _462
REMARK  191  A    between atoms: _461  and  _464
REMARK  192  A    between atoms: _467  and  _469
REMARK  193  A    between atoms: _469  and  _470
REMARK  194  A    between atoms: _469  and  _472
REMARK  195  A    between atoms: _472  and  _473
REMARK  196  A    between atoms: _476  and  _478
REMARK  197  A    between atoms: _478  and  _479
REMARK  198  A    between atoms: _478  and  _481
REMARK  199  A    between atoms: _481  and  _482
REMARK  200  A    between atoms: _486  and  _487
REMARK  201  A    between atoms: _492  and  _494
REMARK  202  A    between atoms: _494  and  _495
REMARK  203  A    between atoms: _494  and  _497
REMARK  204  A    between atoms: _500  and  _502
REMARK  205  A    between atoms: _502  and  _503
REMARK  206  A    between atoms: _502  and  _505
REMARK  207  A    between atoms: _505  and  _506
REMARK  208  A    between atoms: _511  and  _513
REMARK  209  A    between atoms: _513  and  _514
REMARK  210  A    between atoms: _513  and  _516
REMARK  211  A    between atoms: _516  and  _517
REMARK  212  A    between atoms: _520  and  _522
REMARK  213  A    between atoms: _522  and  _523
REMARK  214  A    between atoms: _522  and  _525
REMARK  215  A    between atoms: _525  and  _526
REMARK  216  A    between atoms: _529  and  _531
REMARK  217  A    between atoms: _531  and  _532
REMARK  218  A    between atoms: _534  and  _536
REMARK  219  A    between atoms: _536  and  _537
REMARK  220  A    between atoms: _536  and  _539
REMARK  221  A    between atoms: _539  and  _540
REMARK  222  A    between atoms: _540  and  _541
REMARK  223  A    between atoms: _541  and  _542
REMARK  224  A    between atoms: _551  and  _553
REMARK  225  A    between atoms: _553  and  _554
REMARK  226  A    between atoms: _553  and  _556
REMARK  227  A    between atoms: _556  and  _557
REMARK                            x       y       z     vdW  Elec       q    Type
REMARK                         _______ _______ _______ _____ _____    ______ ____
ROOT
ATOM      1  O   HOH     1      27.609  26.911  14.762  0.00  0.00    +0.000 OA
ENDROOT
TORSDOF 0
REMARK  Name = ../refined-set-2016/3a2o/3a2o_pocket.pdb
REMARK  227 active torsions:
REMARK  status: ('A' for Active; 'I' for Inactive)
REMARK    1  A    between atoms: _1  and  _3
REMARK    2  A    between atoms: _3  and  _4
REMARK    3  A    between atoms: _3  and  _6
REMARK    4  A    between atoms: _6  and  _7
REMARK    5  A    between atoms: _7  and  _8
REMARK    6  A    between atoms: _8  and  _9
REMARK    7  A    between atoms: _18  and  _20
REMARK    8  A    between atoms: _20  and  _21
REMARK    9  A    between atoms: _20  and  _23
REMARK   10  A    between atoms: _23  and  _24
REMARK   11  A    between atoms: _27  and  _29
REMARK   12  A    between atoms: _29  and  _30
REMARK   13  A    between atoms: _29  and  _32
REMARK   14  A    between atoms: _32  and  _33
REMARK   15  A    between atoms: _36  and  _38
REMARK   16  A    between atoms: _38  and  _39
REMARK   17  A    between atoms: _38  and  _41
REMARK   18  A    between atoms: _41  and  _42
REMARK   19  A    between atoms: _45  and  _47
REMARK   20  A    between atoms: _47  and  _48
REMARK   21  A    between atoms: _47  and  _50
REMARK   22  A    between atoms: _50  and  _51
REMARK   23  A    between atoms: _54  and  _56
REMARK   24  A    between atoms: _56  and  _57
REMARK   25  A    between atoms: _59  and  _61
REMARK   26  A    between atoms: _61  and  _62
REMARK   27  A    between atoms: _65  and  _67
REMARK   28  A    between atoms: _67  and  _68
REMARK   29  A    between atoms: _67  and  _70
REMARK   30  A    between atoms: _70  and  _71
REMARK   31  A    between atoms: _74  and  _76
REMARK   32  A    between atoms: _76  and  _77
REMARK   33  A    between atoms: _76  and  _79
REMARK   34  A    between atoms: _79  and  _80
REMARK   35  A    between atoms: _83  and  _85
REMARK   36  A    between atoms: _85  and  _86
REMARK   37  A    between atoms: _85  and  _88
REMARK   38  A    between atoms: _88  and  _89
REMARK   39  A    between atoms: _92  and  _94
REMARK   40  A    between atoms: _94  and  _95
REMARK   41  A    between atoms: _94  and  _97
REMARK   42  A    between atoms: _100  and  _102
REMARK   43  A    between atoms: _102  and  _103
REMARK   44  A    between atoms: _102  and  _105
REMARK   45  A    between atoms: _106  and  _107
REMARK   46  A    between atoms: _107  and  _108
REMARK   47  A    between atoms: _108  and  _109
REMARK   48  A    between atoms: _113  and  _115
REMARK   49  A    between atoms: _115  and  _116
REMARK   50  A    between atoms: _115  and  _118
REMARK   51  A    between atoms: _118  and  _119
REMARK   52  A    between atoms: _119  and  _120
REMARK   53  A    between atoms: _122  and  _124
REMARK   54  A    between atoms: _124  and  _125
REMARK   55  A    between atoms: _124  and  _127
REMARK   56  A    between atoms: _127  and  _128
REMARK   57  A    between atoms: _131  and  _133
REMARK   58  A    between atoms: _133  and  _134
REMARK   59  A    between atoms: _136  and  _138
REMARK   60  A    between atoms: _138  and  _139
REMARK   61  A    between atoms: _141  and  _143
REMARK   62  A    between atoms: _143  and  _144
REMARK   63  A    between atoms: _143  and  _146
REMARK   64  A    between atoms: _146  and  _147
REMARK   65  A    between atoms: _150  and  _152
REMARK   66  A    between atoms: _152  and  _153
REMARK   67  A    between atoms: _155  and  _157
REMARK   68  A    between atoms: _157  and  _158
REMARK   69  A    between atoms: _160  and  _162
REMARK   70  A    between atoms: _162  and  _163
REMARK   71  A    between atoms: _162  and  _165
REMARK   72  A    between atoms: _165  and  _166
REMARK   73  A    between atoms: _169  and  _171
REMARK   74  A    between atoms: _171  and  _172
REMARK   75  A    between atoms: _171  and  _174
REMARK   76  A    between atoms: _177  and  _179
REMARK   77  A    between atoms: _179  and  _180
REMARK   78  A    between atoms: _179  and  _182
REMARK   79  A    between atoms: _182  and  _183
REMARK   80  A    between atoms: _187  and  _188
REMARK   81  A    between atoms: _193  and  _195
REMARK   82  A    between atoms: _195  and  _196
REMARK   83  A    between atoms: _195  and  _198
REMARK   84  A    between atoms: _198  and  _199
REMARK   85  A    between atoms: _203  and  _204
REMARK   86  A    between atoms: _209  and  _211
REMARK   87  A    between atoms: _211  and  _212
REMARK   88  A    between atoms: _211  and  _214
REMARK   89  A    between atoms: _217  and  _219
REMARK   90  A    between atoms: _219  and  _220
REMARK   91  A    between atoms: _219  and  _222
REMARK   92  A    between atoms: _222  and  _223
REMARK   93  A    between atoms: _228  and  _230
REMARK   94  A    between atoms: _230  and  _231
REMARK   95  A    between atoms: _230  and  _233
REMARK   96  A    between atoms: _233  and  _234
REMARK   97  A    between atoms: _237  and  _239
REMARK   98  A    between atoms: _239  and  _240
REMARK   99  A    between atoms: _239  and  _242
REMARK  100  A    between atoms: _242  and  _243
REMARK  101  A    between atoms: _246  and  _248
REMARK  102  A    between atoms: _248  and  _249
REMARK  103  A    between atoms: _251  and  _253
REMARK  104  A    between atoms: _253  and  _254
REMARK  105  A    between atoms: _253  and  _256
REMARK  106  A    between atoms: _256  and  _257
REMARK  107  A    between atoms: _257  and  _258
REMARK  108  A    between atoms: _258  and  _259
REMARK  109  A    between atoms: _268  and  _270
REMARK  110  A    between atoms: _270  and  _271
REMARK  111  A    between atoms: _270  and  _273
REMARK  112  A    between atoms: _273  and  _274
REMARK  113  A    between atoms: _279  and  _281
REMARK  114  A    between atoms: _281  and  _282
REMARK  115  A    between atoms: _281  and  _284
REMARK  116  A    between atoms: _284  and  _285
REMARK  117  A    between atoms: _285  and  _286
REMARK  118  A    between atoms: _286  and  _287
REMARK  119  A    between atoms: _296  and  _298
REMARK  120  A    between atoms: _298  and  _299
REMARK  121  A    between atoms: _298  and  _301
REMARK  122  A    between atoms: _301  and  _302
REMARK  123  A    between atoms: _305  and  _307
REMARK  124  A    between atoms: _307  and  _308
REMARK  125  A    between atoms: _307  and  _310
REMARK  126  A    between atoms: _310  and  _311
REMARK  127  A    between atoms: _314  and  _316
REMARK  128  A    between atoms: _316  and  _317
REMARK  129  A    between atoms: _316  and  _319
REMARK  130  A    between atoms: _319  and  _320
REMARK  131  A    between atoms: _323  and  _325
REMARK  132  A    between atoms: _325  and  _326
REMARK  133  A    between atoms: _325  and  _328
REMARK  134  A    between atoms: _328  and  _329
REMARK  135  A    between atoms: _332  and  _334
REMARK  136  A    between atoms: _334  and  _335
REMARK  137  A    between atoms: _337  and  _339
REMARK  138  A    between atoms: _339  and  _340
REMARK  139  A    between atoms: _343  and  _345
REMARK  140  A    between atoms: _345  and  _346
REMARK  141  A    between atoms: _345  and  _348
REMARK  142  A    between atoms: _348  and  _349
REMARK  143  A    between atoms: _352  and  _354
REMARK  144  A    between atoms: _354  and  _355
REMARK  145  A    between atoms: _354  and  _357
REMARK  146  A    between atoms: _357  and  _358
REMARK  147  A    between atoms: _361  and  _363
REMARK  148  A    between atoms: _363  and  _364
REMARK  149  A    between atoms: _363  and  _366
REMARK  150  A    between atoms: _366  and  _367
REMARK  151  A    between atoms: _370  and  _372
REMARK  152  A    between atoms: _372  and  _373
REMARK  153  A    between atoms: _372  and  _375
REMARK  154  A    between atoms: _378  and  _380
REMARK  155  A    between atoms: _380  and  _381
REMARK  156  A    between atoms: _380  and  _383
REMARK  157  A    between atoms: _384  and  _385
REMARK  158  A    between atoms: _385  and  _386
REMARK  159  A    between atoms: _386  and  _387
REMARK  160  A    between atoms: _391  and  _393
REMARK  161  A    between atoms: _393  and  _394
REMARK  162  A    between atoms: _393  and  _396
REMARK  163  A    between atoms: _396  and  _397
REMARK  164  A    between atoms: _397  and  _398
REMARK  165  A    between atoms: _400  and  _402
REMARK  166  A    between atoms: _402  and  _403
REMARK  167  A    between atoms: _402  and  _405
REMARK  168  A    between atoms: _405  and  _406
REMARK  169  A    between atoms: _409  and  _411
REMARK  170  A    between atoms: _411  and  _412
REMARK  171  A    between atoms: _414  and  _416
REMARK  172  A    between atoms: _416  and  _417
REMARK  173  A    between atoms: _419  and  _421
REMARK  174  A    between atoms: _421  and  _422
REMARK  175  A    between atoms: _421  and  _424
REMARK  176  A    between atoms: _424  and  _425
REMARK  177  A    between atoms: _428  and  _430
REMARK  178  A    between atoms: _430  and  _431
REMARK  179  A    between atoms: _433  and  _435
REMARK  180  A    between atoms: _435  and  _436
REMARK  181  A    between atoms: _438  and  _440
REMARK  182  A    between atoms: _440  and  _441
REMARK  183  A    between atoms: _440  and  _443
REMARK  184  A    between atoms: _443  and  _444
REMARK  185  A    between atoms: _450  and  _452
REMARK  186  A    between atoms: _452  and  _453
REMARK  187  A    between atoms: _452  and  _455
REMARK  188  A    between atoms: _455  and  _456
REMARK  189  A    between atoms: _459  and  _461
REMARK  190  A    between atoms: _461  and  _462
REMARK  191  A    between atoms: _461  and  _464
REMARK  192  A    between atoms: _467  and  _469
REMARK  193  A    between atoms: _469  and  _470
REMARK  194  A    between atoms: _469  and  _472
REMARK  195  A    between atoms: _472  and  _473
REMARK  196  A    between atoms: _476  and  _478
REMARK  197  A    between atoms: _478  and  _479
REMARK  198  A    between atoms: _478  and  _481
REMARK  199  A    between atoms: _481  and  _482
REMARK  200  A    between atoms: _486  and  _487
REMARK  201  A    between atoms: _492  and  _494
REMARK  202  A    between atoms: _494  and  _495
REMARK  203  A    between atoms: _494  and  _497
REMARK  204  A    between atoms: _500  and  _502
REMARK  205  A    between atoms: _502  and  _503
REMARK  206  A    between atoms: _502  and  _505
REMARK  207  A    between atoms: _505  and  _506
REMARK  208  A    between atoms: _511  and  _513
REMARK  209  A    between atoms: _513  and  _514
REMARK  210  A    between atoms: _513  and  _516
REMARK  211  A    between atoms: _516  and  _517
REMARK  212  A    between atoms: _520  and  _522
REMARK  213  A    between atoms: _522  and  _523
REMARK  214  A    between atoms: _522  and  _525
REMARK  215  A    between atoms: _525  and  _526
REMARK  216  A    between atoms: _529  and  _531
REMARK  217  A    between atoms: _531  and  _532
REMARK  218  A    between atoms: _534  and  _536
REMARK  219  A    between atoms: _536  and  _537
REMARK  220  A    between atoms: _536  and  _539
REMARK  221  A    between atoms: _539  and  _540
REMARK  222  A    between atoms: _540  and  _541
REMARK  223  A    between atoms: _541  and  _542
REMARK  224  A    between atoms: _551  and  _553
REMARK  225  A    between atoms: _553  and  _554
REMARK  226  A    between atoms: _553  and  _556
REMARK  227  A    between atoms: _556  and  _557
REMARK                            x       y       z     vdW  Elec       q    Type
REMARK                         _______ _______ _______ _____ _____    ______ ____
ROOT
ATOM      1  O   HOH     1      24.769  33.311  15.764  0.00  0.00    +0.000 OA
ENDROOT
TORSDOF 0
REMARK  Name = ../refined-set-2016/3a2o/3a2o_pocket.pdb
REMARK  227 active torsions:
REMARK  status: ('A' for Active; 'I' for Inactive)
REMARK    1  A    between atoms: _1  and  _3
REMARK    2  A    between atoms: _3  and  _4
REMARK    3  A    between atoms: _3  and  _6
REMARK    4  A    between atoms: _6  and  _7
REMARK    5  A    between atoms: _7  and  _8
REMARK    6  A    between atoms: _8  and  _9
REMARK    7  A    between atoms: _18  and  _20
REMARK    8  A    between atoms: _20  and  _21
REMARK    9  A    between atoms: _20  and  _23
REMARK   10  A    between atoms: _23  and  _24
REMARK   11  A    between atoms: _27  and  _29
REMARK   12  A    between atoms: _29  and  _30
REMARK   13  A    between atoms: _29  and  _32
REMARK   14  A    between atoms: _32  and  _33
REMARK   15  A    between atoms: _36  and  _38
REMARK   16  A    between atoms: _38  and  _39
REMARK   17  A    between atoms: _38  and  _41
REMARK   18  A    between atoms: _41  and  _42
REMARK   19  A    between atoms: _45  and  _47
REMARK   20  A    between atoms: _47  and  _48
REMARK   21  A    between atoms: _47  and  _50
REMARK   22  A    between atoms: _50  and  _51
REMARK   23  A    between atoms: _54  and  _56
REMARK   24  A    between atoms: _56  and  _57
REMARK   25  A    between atoms: _59  and  _61
REMARK   26  A    between atoms: _61  and  _62
REMARK   27  A    between atoms: _65  and  _67
REMARK   28  A    between atoms: _67  and  _68
REMARK   29  A    between atoms: _67  and  _70
REMARK   30  A    between atoms: _70  and  _71
REMARK   31  A    between atoms: _74  and  _76
REMARK   32  A    between atoms: _76  and  _77
REMARK   33  A    between atoms: _76  and  _79
REMARK   34  A    between atoms: _79  and  _80
REMARK   35  A    between atoms: _83  and  _85
REMARK   36  A    between atoms: _85  and  _86
REMARK   37  A    between atoms: _85  and  _88
REMARK   38  A    between atoms: _88  and  _89
REMARK   39  A    between atoms: _92  and  _94
REMARK   40  A    between atoms: _94  and  _95
REMARK   41  A    between atoms: _94  and  _97
REMARK   42  A    between atoms: _100  and  _102
REMARK   43  A    between atoms: _102  and  _103
REMARK   44  A    between atoms: _102  and  _105
REMARK   45  A    between atoms: _106  and  _107
REMARK   46  A    between atoms: _107  and  _108
REMARK   47  A    between atoms: _108  and  _109
REMARK   48  A    between atoms: _113  and  _115
REMARK   49  A    between atoms: _115  and  _116
REMARK   50  A    between atoms: _115  and  _118
REMARK   51  A    between atoms: _118  and  _119
REMARK   52  A    between atoms: _119  and  _120
REMARK   53  A    between atoms: _122  and  _124
REMARK   54  A    between atoms: _124  and  _125
REMARK   55  A    between atoms: _124  and  _127
REMARK   56  A    between atoms: _127  and  _128
REMARK   57  A    between atoms: _131  and  _133
REMARK   58  A    between atoms: _133  and  _134
REMARK   59  A    between atoms: _136  and  _138
REMARK   60  A    between atoms: _138  and  _139
REMARK   61  A    between atoms: _141  and  _143
REMARK   62  A    between atoms: _143  and  _144
REMARK   63  A    between atoms: _143  and  _146
REMARK   64  A    between atoms: _146  and  _147
REMARK   65  A    between atoms: _150  and  _152
REMARK   66  A    between atoms: _152  and  _153
REMARK   67  A    between atoms: _155  and  _157
REMARK   68  A    between atoms: _157  and  _158
REMARK   69  A    between atoms: _160  and  _162
REMARK   70  A    between atoms: _162  and  _163
REMARK   71  A    between atoms: _162  and  _165
REMARK   72  A    between atoms: _165  and  _166
REMARK   73  A    between atoms: _169  and  _171
REMARK   74  A    between atoms: _171  and  _172
REMARK   75  A    between atoms: _171  and  _174
REMARK   76  A    between atoms: _177  and  _179
REMARK   77  A    between atoms: _179  and  _180
REMARK   78  A    between atoms: _179  and  _182
REMARK   79  A    between atoms: _182  and  _183
REMARK   80  A    between atoms: _187  and  _188
REMARK   81  A    between atoms: _193  and  _195
REMARK   82  A    between atoms: _195  and  _196
REMARK   83  A    between atoms: _195  and  _198
REMARK   84  A    between atoms: _198  and  _199
REMARK   85  A    between atoms: _203  and  _204
REMARK   86  A    between atoms: _209  and  _211
REMARK   87  A    between atoms: _211  and  _212
REMARK   88  A    between atoms: _211  and  _214
REMARK   89  A    between atoms: _217  and  _219
REMARK   90  A    between atoms: _219  and  _220
REMARK   91  A    between atoms: _219  and  _222
REMARK   92  A    between atoms: _222  and  _223
REMARK   93  A    between atoms: _228  and  _230
REMARK   94  A    between atoms: _230  and  _231
REMARK   95  A    between atoms: _230  and  _233
REMARK   96  A    between atoms: _233  and  _234
REMARK   97  A    between atoms: _237  and  _239
REMARK   98  A    between atoms: _239  and  _240
REMARK   99  A    between atoms: _239  and  _242
REMARK  100  A    between atoms: _242  and  _243
REMARK  101  A    between atoms: _246  and  _248
REMARK  102  A    between atoms: _248  and  _249
REMARK  103  A    between atoms: _251  and  _253
REMARK  104  A    between atoms: _253  and  _254
REMARK  105  A    between atoms: _253  and  _256
REMARK  106  A    between atoms: _256  and  _257
REMARK  107  A    between atoms: _257  and  _258
REMARK  108  A    between atoms: _258  and  _259
REMARK  109  A    between atoms: _268  and  _270
REMARK  110  A    between atoms: _270  and  _271
REMARK  111  A    between atoms: _270  and  _273
REMARK  112  A    between atoms: _273  and  _274
REMARK  113  A    between atoms: _279  and  _281
REMARK  114  A    between atoms: _281  and  _282
REMARK  115  A    between atoms: _281  and  _284
REMARK  116  A    between atoms: _284  and  _285
REMARK  117  A    between atoms: _285  and  _286
REMARK  118  A    between atoms: _286  and  _287
REMARK  119  A    between atoms: _296  and  _298
REMARK  120  A    between atoms: _298  and  _299
REMARK  121  A    between atoms: _298  and  _301
REMARK  122  A    between atoms: _301  and  _302
REMARK  123  A    between atoms: _305  and  _307
REMARK  124  A    between atoms: _307  and  _308
REMARK  125  A    between atoms: _307  and  _310
REMARK  126  A    between atoms: _310  and  _311
REMARK  127  A    between atoms: _314  and  _316
REMARK  128  A    between atoms: _316  and  _317
REMARK  129  A    between atoms: _316  and  _319
REMARK  130  A    between atoms: _319  and  _320
REMARK  131  A    between atoms: _323  and  _325
REMARK  132  A    between atoms: _325  and  _326
REMARK  133  A    between atoms: _325  and  _328
REMARK  134  A    between atoms: _328  and  _329
REMARK  135  A    between atoms: _332  and  _334
REMARK  136  A    between atoms: _334  and  _335
REMARK  137  A    between atoms: _337  and  _339
REMARK  138  A    between atoms: _339  and  _340
REMARK  139  A    between atoms: _343  and  _345
REMARK  140  A    between atoms: _345  and  _346
REMARK  141  A    between atoms: _345  and  _348
REMARK  142  A    between atoms: _348  and  _349
REMARK  143  A    between atoms: _352  and  _354
REMARK  144  A    between atoms: _354  and  _355
REMARK  145  A    between atoms: _354  and  _357
REMARK  146  A    between atoms: _357  and  _358
REMARK  147  A    between atoms: _361  and  _363
REMARK  148  A    between atoms: _363  and  _364
REMARK  149  A    between atoms: _363  and  _366
REMARK  150  A    between atoms: _366  and  _367
REMARK  151  A    between atoms: _370  and  _372
REMARK  152  A    between atoms: _372  and  _373
REMARK  153  A    between atoms: _372  and  _375
REMARK  154  A    between atoms: _378  and  _380
REMARK  155  A    between atoms: _380  and  _381
REMARK  156  A    between atoms: _380  and  _383
REMARK  157  A    between atoms: _384  and  _385
REMARK  158  A    between atoms: _385  and  _386
REMARK  159  A    between atoms: _386  and  _387
REMARK  160  A    between atoms: _391  and  _393
REMARK  161  A    between atoms: _393  and  _394
REMARK  162  A    between atoms: _393  and  _396
REMARK  163  A    between atoms: _396  and  _397
REMARK  164  A    between atoms: _397  and  _398
REMARK  165  A    between atoms: _400  and  _402
REMARK  166  A    between atoms: _402  and  _403
REMARK  167  A    between atoms: _402  and  _405
REMARK  168  A    between atoms: _405  and  _406
REMARK  169  A    between atoms: _409  and  _411
REMARK  170  A    between atoms: _411  and  _412
REMARK  171  A    between atoms: _414  and  _416
REMARK  172  A    between atoms: _416  and  _417
REMARK  173  A    between atoms: _419  and  _421
REMARK  174  A    between atoms: _421  and  _422
REMARK  175  A    between atoms: _421  and  _424
REMARK  176  A    between atoms: _424  and  _425
REMARK  177  A    between atoms: _428  and  _430
REMARK  178  A    between atoms: _430  and  _431
REMARK  179  A    between atoms: _433  and  _435
REMARK  180  A    between atoms: _435  and  _436
REMARK  181  A    between atoms: _438  and  _440
REMARK  182  A    between atoms: _440  and  _441
REMARK  183  A    between atoms: _440  and  _443
REMARK  184  A    between atoms: _443  and  _444
REMARK  185  A    between atoms: _450  and  _452
REMARK  186  A    between atoms: _452  and  _453
REMARK  187  A    between atoms: _452  and  _455
REMARK  188  A    between atoms: _455  and  _456
REMARK  189  A    between atoms: _459  and  _461
REMARK  190  A    between atoms: _461  and  _462
REMARK  191  A    between atoms: _461  and  _464
REMARK  192  A    between atoms: _467  and  _469
REMARK  193  A    between atoms: _469  and  _470
REMARK  194  A    between atoms: _469  and  _472
REMARK  195  A    between atoms: _472  and  _473
REMARK  196  A    between atoms: _476  and  _478
REMARK  197  A    between atoms: _478  and  _479
REMARK  198  A    between atoms: _478  and  _481
REMARK  199  A    between atoms: _481  and  _482
REMARK  200  A    between atoms: _486  and  _487
REMARK  201  A    between atoms: _492  and  _494
REMARK  202  A    between atoms: _494  and  _495
REMARK  203  A    between atoms: _494  and  _497
REMARK  204  A    between atoms: _500  and  _502
REMARK  205  A    between atoms: _502  and  _503
REMARK  206  A    between atoms: _502  and  _505
REMARK  207  A    between atoms: _505  and  _506
REMARK  208  A    between atoms: _511  and  _513
REMARK  209  A    between atoms: _513  and  _514
REMARK  210  A    between atoms: _513  and  _516
REMARK  211  A    between atoms: _516  and  _517
REMARK  212  A    between atoms: _520  and  _522
REMARK  213  A    between atoms: _522  and  _523
REMARK  214  A    between atoms: _522  and  _525
REMARK  215  A    between atoms: _525  and  _526
REMARK  216  A    between atoms: _529  and  _531
REMARK  217  A    between atoms: _531  and  _532
REMARK  218  A    between atoms: _534  and  _536
REMARK  219  A    between atoms: _536  and  _537
REMARK  220  A    between atoms: _536  and  _539
REMARK  221  A    between atoms: _539  and  _540
REMARK  222  A    between atoms: _540  and  _541
REMARK  223  A    between atoms: _541  and  _542
REMARK  224  A    between atoms: _551  and  _553
REMARK  225  A    between atoms: _553  and  _554
REMARK  226  A    between atoms: _553  and  _556
REMARK  227  A    between atoms: _556  and  _557
REMARK                            x       y       z     vdW  Elec       q    Type
REMARK                         _______ _______ _______ _____ _____    ______ ____
ROOT
ATOM      1  O   HOH     1      22.531  27.201  25.804  0.00  0.00    +0.000 OA
ENDROOT
TORSDOF 0
REMARK  Name = ../refined-set-2016/3a2o/3a2o_pocket.pdb
REMARK  227 active torsions:
REMARK  status: ('A' for Active; 'I' for Inactive)
REMARK    1  A    between atoms: _1  and  _3
REMARK    2  A    between atoms: _3  and  _4
REMARK    3  A    between atoms: _3  and  _6
REMARK    4  A    between atoms: _6  and  _7
REMARK    5  A    between atoms: _7  and  _8
REMARK    6  A    between atoms: _8  and  _9
REMARK    7  A    between atoms: _18  and  _20
REMARK    8  A    between atoms: _20  and  _21
REMARK    9  A    between atoms: _20  and  _23
REMARK   10  A    between atoms: _23  and  _24
REMARK   11  A    between atoms: _27  and  _29
REMARK   12  A    between atoms: _29  and  _30
REMARK   13  A    between atoms: _29  and  _32
REMARK   14  A    between atoms: _32  and  _33
REMARK   15  A    between atoms: _36  and  _38
REMARK   16  A    between atoms: _38  and  _39
REMARK   17  A    between atoms: _38  and  _41
REMARK   18  A    between atoms: _41  and  _42
REMARK   19  A    between atoms: _45  and  _47
REMARK   20  A    between atoms: _47  and  _48
REMARK   21  A    between atoms: _47  and  _50
REMARK   22  A    between atoms: _50  and  _51
REMARK   23  A    between atoms: _54  and  _56
REMARK   24  A    between atoms: _56  and  _57
REMARK   25  A    between atoms: _59  and  _61
REMARK   26  A    between atoms: _61  and  _62
REMARK   27  A    between atoms: _65  and  _67
REMARK   28  A    between atoms: _67  and  _68
REMARK   29  A    between atoms: _67  and  _70
REMARK   30  A    between atoms: _70  and  _71
REMARK   31  A    between atoms: _74  and  _76
REMARK   32  A    between atoms: _76  and  _77
REMARK   33  A    between atoms: _76  and  _79
REMARK   34  A    between atoms: _79  and  _80
REMARK   35  A    between atoms: _83  and  _85
REMARK   36  A    between atoms: _85  and  _86
REMARK   37  A    between atoms: _85  and  _88
REMARK   38  A    between atoms: _88  and  _89
REMARK   39  A    between atoms: _92  and  _94
REMARK   40  A    between atoms: _94  and  _95
REMARK   41  A    between atoms: _94  and  _97
REMARK   42  A    between atoms: _100  and  _102
REMARK   43  A    between atoms: _102  and  _103
REMARK   44  A    between atoms: _102  and  _105
REMARK   45  A    between atoms: _106  and  _107
REMARK   46  A    between atoms: _107  and  _108
REMARK   47  A    between atoms: _108  and  _109
REMARK   48  A    between atoms: _113  and  _115
REMARK   49  A    between atoms: _115  and  _116
REMARK   50  A    between atoms: _115  and  _118
REMARK   51  A    between atoms: _118  and  _119
REMARK   52  A    between atoms: _119  and  _120
REMARK   53  A    between atoms: _122  and  _124
REMARK   54  A    between atoms: _124  and  _125
REMARK   55  A    between atoms: _124  and  _127
REMARK   56  A    between atoms: _127  and  _128
REMARK   57  A    between atoms: _131  and  _133
REMARK   58  A    between atoms: _133  and  _134
REMARK   59  A    between atoms: _136  and  _138
REMARK   60  A    between atoms: _138  and  _139
REMARK   61  A    between atoms: _141  and  _143
REMARK   62  A    between atoms: _143  and  _144
REMARK   63  A    between atoms: _143  and  _146
REMARK   64  A    between atoms: _146  and  _147
REMARK   65  A    between atoms: _150  and  _152
REMARK   66  A    between atoms: _152  and  _153
REMARK   67  A    between atoms: _155  and  _157
REMARK   68  A    between atoms: _157  and  _158
REMARK   69  A    between atoms: _160  and  _162
REMARK   70  A    between atoms: _162  and  _163
REMARK   71  A    between atoms: _162  and  _165
REMARK   72  A    between atoms: _165  and  _166
REMARK   73  A    between atoms: _169  and  _171
REMARK   74  A    between atoms: _171  and  _172
REMARK   75  A    between atoms: _171  and  _174
REMARK   76  A    between atoms: _177  and  _179
REMARK   77  A    between atoms: _179  and  _180
REMARK   78  A    between atoms: _179  and  _182
REMARK   79  A    between atoms: _182  and  _183
REMARK   80  A    between atoms: _187  and  _188
REMARK   81  A    between atoms: _193  and  _195
REMARK   82  A    between atoms: _195  and  _196
REMARK   83  A    between atoms: _195  and  _198
REMARK   84  A    between atoms: _198  and  _199
REMARK   85  A    between atoms: _203  and  _204
REMARK   86  A    between atoms: _209  and  _211
REMARK   87  A    between atoms: _211  and  _212
REMARK   88  A    between atoms: _211  and  _214
REMARK   89  A    between atoms: _217  and  _219
REMARK   90  A    between atoms: _219  and  _220
REMARK   91  A    between atoms: _219  and  _222
REMARK   92  A    between atoms: _222  and  _223
REMARK   93  A    between atoms: _228  and  _230
REMARK   94  A    between atoms: _230  and  _231
REMARK   95  A    between atoms: _230  and  _233
REMARK   96  A    between atoms: _233  and  _234
REMARK   97  A    between atoms: _237  and  _239
REMARK   98  A    between atoms: _239  and  _240
REMARK   99  A    between atoms: _239  and  _242
REMARK  100  A    between atoms: _242  and  _243
REMARK  101  A    between atoms: _246  and  _248
REMARK  102  A    between atoms: _248  and  _249
REMARK  103  A    between atoms: _251  and  _253
REMARK  104  A    between atoms: _253  and  _254
REMARK  105  A    between atoms: _253  and  _256
REMARK  106  A    between atoms: _256  and  _257
REMARK  107  A    between atoms: _257  and  _258
REMARK  108  A    between atoms: _258  and  _259
REMARK  109  A    between atoms: _268  and  _270
REMARK  110  A    between atoms: _270  and  _271
REMARK  111  A    between atoms: _270  and  _273
REMARK  112  A    between atoms: _273  and  _274
REMARK  113  A    between atoms: _279  and  _281
REMARK  114  A    between atoms: _281  and  _282
REMARK  115  A    between atoms: _281  and  _284
REMARK  116  A    between atoms: _284  and  _285
REMARK  117  A    between atoms: _285  and  _286
REMARK  118  A    between atoms: _286  and  _287
REMARK  119  A    between atoms: _296  and  _298
REMARK  120  A    between atoms: _298  and  _299
REMARK  121  A    between atoms: _298  and  _301
REMARK  122  A    between atoms: _301  and  _302
REMARK  123  A    between atoms: _305  and  _307
REMARK  124  A    between atoms: _307  and  _308
REMARK  125  A    between atoms: _307  and  _310
REMARK  126  A    between atoms: _310  and  _311
REMARK  127  A    between atoms: _314  and  _316
REMARK  128  A    between atoms: _316  and  _317
REMARK  129  A    between atoms: _316  and  _319
REMARK  130  A    between atoms: _319  and  _320
REMARK  131  A    between atoms: _323  and  _325
REMARK  132  A    between atoms: _325  and  _326
REMARK  133  A    between atoms: _325  and  _328
REMARK  134  A    between atoms: _328  and  _329
REMARK  135  A    between atoms: _332  and  _334
REMARK  136  A    between atoms: _334  and  _335
REMARK  137  A    between atoms: _337  and  _339
REMARK  138  A    between atoms: _339  and  _340
REMARK  139  A    between atoms: _343  and  _345
REMARK  140  A    between atoms: _345  and  _346
REMARK  141  A    between atoms: _345  and  _348
REMARK  142  A    between atoms: _348  and  _349
REMARK  143  A    between atoms: _352  and  _354
REMARK  144  A    between atoms: _354  and  _355
REMARK  145  A    between atoms: _354  and  _357
REMARK  146  A    between atoms: _357  and  _358
REMARK  147  A    between atoms: _361  and  _363
REMARK  148  A    between atoms: _363  and  _364
REMARK  149  A    between atoms: _363  and  _366
REMARK  150  A    between atoms: _366  and  _367
REMARK  151  A    between atoms: _370  and  _372
REMARK  152  A    between atoms: _372  and  _373
REMARK  153  A    between atoms: _372  and  _375
REMARK  154  A    between atoms: _378  and  _380
REMARK  155  A    between atoms: _380  and  _381
REMARK  156  A    between atoms: _380  and  _383
REMARK  157  A    between atoms: _384  and  _385
REMARK  158  A    between atoms: _385  and  _386
REMARK  159  A    between atoms: _386  and  _387
REMARK  160  A    between atoms: _391  and  _393
REMARK  161  A    between atoms: _393  and  _394
REMARK  162  A    between atoms: _393  and  _396
REMARK  163  A    between atoms: _396  and  _397
REMARK  164  A    between atoms: _397  and  _398
REMARK  165  A    between atoms: _400  and  _402
REMARK  166  A    between atoms: _402  and  _403
REMARK  167  A    between atoms: _402  and  _405
REMARK  168  A    between atoms: _405  and  _406
REMARK  169  A    between atoms: _409  and  _411
REMARK  170  A    between atoms: _411  and  _412
REMARK  171  A    between atoms: _414  and  _416
REMARK  172  A    between atoms: _416  and  _417
REMARK  173  A    between atoms: _419  and  _421
REMARK  174  A    between atoms: _421  and  _422
REMARK  175  A    between atoms: _421  and  _424
REMARK  176  A    between atoms: _424  and  _425
REMARK  177  A    between atoms: _428  and  _430
REMARK  178  A    between atoms: _430  and  _431
REMARK  179  A    between atoms: _433  and  _435
REMARK  180  A    between atoms: _435  and  _436
REMARK  181  A    between atoms: _438  and  _440
REMARK  182  A    between atoms: _440  and  _441
REMARK  183  A    between atoms: _440  and  _443
REMARK  184  A    between atoms: _443  and  _444
REMARK  185  A    between atoms: _450  and  _452
REMARK  186  A    between atoms: _452  and  _453
REMARK  187  A    between atoms: _452  and  _455
REMARK  188  A    between atoms: _455  and  _456
REMARK  189  A    between atoms: _459  and  _461
REMARK  190  A    between atoms: _461  and  _462
REMARK  191  A    between atoms: _461  and  _464
REMARK  192  A    between atoms: _467  and  _469
REMARK  193  A    between atoms: _469  and  _470
REMARK  194  A    between atoms: _469  and  _472
REMARK  195  A    between atoms: _472  and  _473
REMARK  196  A    between atoms: _476  and  _478
REMARK  197  A    between atoms: _478  and  _479
REMARK  198  A    between atoms: _478  and  _481
REMARK  199  A    between atoms: _481  and  _482
REMARK  200  A    between atoms: _486  and  _487
REMARK  201  A    between atoms: _492  and  _494
REMARK  202  A    between atoms: _494  and  _495
REMARK  203  A    between atoms: _494  and  _497
REMARK  204  A    between atoms: _500  and  _502
REMARK  205  A    between atoms: _502  and  _503
REMARK  206  A    between atoms: _502  and  _505
REMARK  207  A    between atoms: _505  and  _506
REMARK  208  A    between atoms: _511  and  _513
REMARK  209  A    between atoms: _513  and  _514
REMARK  210  A    between atoms: _513  and  _516
REMARK  211  A    between atoms: _516  and  _517
REMARK  212  A    between atoms: _520  and  _522
REMARK  213  A    between atoms: _522  and  _523
REMARK  214  A    between atoms: _522  and  _525
REMARK  215  A    between atoms: _525  and  _526
REMARK  216  A    between atoms: _529  and  _531
REMARK  217  A    between atoms: _531  and  _532
REMARK  218  A    between atoms: _534  and  _536
REMARK  219  A    between atoms: _536  and  _537
REMARK  220  A    between atoms: _536  and  _539
REMARK  221  A    between atoms: _539  and  _540
REMARK  222  A    between atoms: _540  and  _541
REMARK  223  A    between atoms: _541  and  _542
REMARK  224  A    between atoms: _551  and  _553
REMARK  225  A    between atoms: _553  and  _554
REMARK  226  A    between atoms: _553  and  _556
REMARK  227  A    between atoms: _556  and  _557
REMARK                            x       y       z     vdW  Elec       q    Type
REMARK                         _______ _______ _______ _____ _____    ______ ____
ROOT
ATOM      1  O   HOH     1       7.461  14.679  15.631  0.00  0.00    +0.000 OA
ENDROOT
TORSDOF 0
REMARK  Name = ../refined-set-2016/3a2o/3a2o_pocket.pdb
REMARK  227 active torsions:
REMARK  status: ('A' for Active; 'I' for Inactive)
REMARK    1  A    between atoms: _1  and  _3
REMARK    2  A    between atoms: _3  and  _4
REMARK    3  A    between atoms: _3  and  _6
REMARK    4  A    between atoms: _6  and  _7
REMARK    5  A    between atoms: _7  and  _8
REMARK    6  A    between atoms: _8  and  _9
REMARK    7  A    between atoms: _18  and  _20
REMARK    8  A    between atoms: _20  and  _21
REMARK    9  A    between atoms: _20  and  _23
REMARK   10  A    between atoms: _23  and  _24
REMARK   11  A    between atoms: _27  and  _29
REMARK   12  A    between atoms: _29  and  _30
REMARK   13  A    between atoms: _29  and  _32
REMARK   14  A    between atoms: _32  and  _33
REMARK   15  A    between atoms: _36  and  _38
REMARK   16  A    between atoms: _38  and  _39
REMARK   17  A    between atoms: _38  and  _41
REMARK   18  A    between atoms: _41  and  _42
REMARK   19  A    between atoms: _45  and  _47
REMARK   20  A    between atoms: _47  and  _48
REMARK   21  A    between atoms: _47  and  _50
REMARK   22  A    between atoms: _50  and  _51
REMARK   23  A    between atoms: _54  and  _56
REMARK   24  A    between atoms: _56  and  _57
REMARK   25  A    between atoms: _59  and  _61
REMARK   26  A    between atoms: _61  and  _62
REMARK   27  A    between atoms: _65  and  _67
REMARK   28  A    between atoms: _67  and  _68
REMARK   29  A    between atoms: _67  and  _70
REMARK   30  A    between atoms: _70  and  _71
REMARK   31  A    between atoms: _74  and  _76
REMARK   32  A    between atoms: _76  and  _77
REMARK   33  A    between atoms: _76  and  _79
REMARK   34  A    between atoms: _79  and  _80
REMARK   35  A    between atoms: _83  and  _85
REMARK   36  A    between atoms: _85  and  _86
REMARK   37  A    between atoms: _85  and  _88
REMARK   38  A    between atoms: _88  and  _89
REMARK   39  A    between atoms: _92  and  _94
REMARK   40  A    between atoms: _94  and  _95
REMARK   41  A    between atoms: _94  and  _97
REMARK   42  A    between atoms: _100  and  _102
REMARK   43  A    between atoms: _102  and  _103
REMARK   44  A    between atoms: _102  and  _105
REMARK   45  A    between atoms: _106  and  _107
REMARK   46  A    between atoms: _107  and  _108
REMARK   47  A    between atoms: _108  and  _109
REMARK   48  A    between atoms: _113  and  _115
REMARK   49  A    between atoms: _115  and  _116
REMARK   50  A    between atoms: _115  and  _118
REMARK   51  A    between atoms: _118  and  _119
REMARK   52  A    between atoms: _119  and  _120
REMARK   53  A    between atoms: _122  and  _124
REMARK   54  A    between atoms: _124  and  _125
REMARK   55  A    between atoms: _124  and  _127
REMARK   56  A    between atoms: _127  and  _128
REMARK   57  A    between atoms: _131  and  _133
REMARK   58  A    between atoms: _133  and  _134
REMARK   59  A    between atoms: _136  and  _138
REMARK   60  A    between atoms: _138  and  _139
REMARK   61  A    between atoms: _141  and  _143
REMARK   62  A    between atoms: _143  and  _144
REMARK   63  A    between atoms: _143  and  _146
REMARK   64  A    between atoms: _146  and  _147
REMARK   65  A    between atoms: _150  and  _152
REMARK   66  A    between atoms: _152  and  _153
REMARK   67  A    between atoms: _155  and  _157
REMARK   68  A    between atoms: _157  and  _158
REMARK   69  A    between atoms: _160  and  _162
REMARK   70  A    between atoms: _162  and  _163
REMARK   71  A    between atoms: _162  and  _165
REMARK   72  A    between atoms: _165  and  _166
REMARK   73  A    between atoms: _169  and  _171
REMARK   74  A    between atoms: _171  and  _172
REMARK   75  A    between atoms: _171  and  _174
REMARK   76  A    between atoms: _177  and  _179
REMARK   77  A    between atoms: _179  and  _180
REMARK   78  A    between atoms: _179  and  _182
REMARK   79  A    between atoms: _182  and  _183
REMARK   80  A    between atoms: _187  and  _188
REMARK   81  A    between atoms: _193  and  _195
REMARK   82  A    between atoms: _195  and  _196
REMARK   83  A    between atoms: _195  and  _198
REMARK   84  A    between atoms: _198  and  _199
REMARK   85  A    between atoms: _203  and  _204
REMARK   86  A    between atoms: _209  and  _211
REMARK   87  A    between atoms: _211  and  _212
REMARK   88  A    between atoms: _211  and  _214
REMARK   89  A    between atoms: _217  and  _219
REMARK   90  A    between atoms: _219  and  _220
REMARK   91  A    between atoms: _219  and  _222
REMARK   92  A    between atoms: _222  and  _223
REMARK   93  A    between atoms: _228  and  _230
REMARK   94  A    between atoms: _230  and  _231
REMARK   95  A    between atoms: _230  and  _233
REMARK   96  A    between atoms: _233  and  _234
REMARK   97  A    between atoms: _237  and  _239
REMARK   98  A    between atoms: _239  and  _240
REMARK   99  A    between atoms: _239  and  _242
REMARK  100  A    between atoms: _242  and  _243
REMARK  101  A    between atoms: _246  and  _248
REMARK  102  A    between atoms: _248  and  _249
REMARK  103  A    between atoms: _251  and  _253
REMARK  104  A    between atoms: _253  and  _254
REMARK  105  A    between atoms: _253  and  _256
REMARK  106  A    between atoms: _256  and  _257
REMARK  107  A    between atoms: _257  and  _258
REMARK  108  A    between atoms: _258  and  _259
REMARK  109  A    between atoms: _268  and  _270
REMARK  110  A    between atoms: _270  and  _271
REMARK  111  A    between atoms: _270  and  _273
REMARK  112  A    between atoms: _273  and  _274
REMARK  113  A    between atoms: _279  and  _281
REMARK  114  A    between atoms: _281  and  _282
REMARK  115  A    between atoms: _281  and  _284
REMARK  116  A    between atoms: _284  and  _285
REMARK  117  A    between atoms: _285  and  _286
REMARK  118  A    between atoms: _286  and  _287
REMARK  119  A    between atoms: _296  and  _298
REMARK  120  A    between atoms: _298  and  _299
REMARK  121  A    between atoms: _298  and  _301
REMARK  122  A    between atoms: _301  and  _302
REMARK  123  A    between atoms: _305  and  _307
REMARK  124  A    between atoms: _307  and  _308
REMARK  125  A    between atoms: _307  and  _310
REMARK  126  A    between atoms: _310  and  _311
REMARK  127  A    between atoms: _314  and  _316
REMARK  128  A    between atoms: _316  and  _317
REMARK  129  A    between atoms: _316  and  _319
REMARK  130  A    between atoms: _319  and  _320
REMARK  131  A    between atoms: _323  and  _325
REMARK  132  A    between atoms: _325  and  _326
REMARK  133  A    between atoms: _325  and  _328
REMARK  134  A    between atoms: _328  and  _329
REMARK  135  A    between atoms: _332  and  _334
REMARK  136  A    between atoms: _334  and  _335
REMARK  137  A    between atoms: _337  and  _339
REMARK  138  A    between atoms: _339  and  _340
REMARK  139  A    between atoms: _343  and  _345
REMARK  140  A    between atoms: _345  and  _346
REMARK  141  A    between atoms: _345  and  _348
REMARK  142  A    between atoms: _348  and  _349
REMARK  143  A    between atoms: _352  and  _354
REMARK  144  A    between atoms: _354  and  _355
REMARK  145  A    between atoms: _354  and  _357
REMARK  146  A    between atoms: _357  and  _358
REMARK  147  A    between atoms: _361  and  _363
REMARK  148  A    between atoms: _363  and  _364
REMARK  149  A    between atoms: _363  and  _366
REMARK  150  A    between atoms: _366  and  _367
REMARK  151  A    between atoms: _370  and  _372
REMARK  152  A    between atoms: _372  and  _373
REMARK  153  A    between atoms: _372  and  _375
REMARK  154  A    between atoms: _378  and  _380
REMARK  155  A    between atoms: _380  and  _381
REMARK  156  A    between atoms: _380  and  _383
REMARK  157  A    between atoms: _384  and  _385
REMARK  158  A    between atoms: _385  and  _386
REMARK  159  A    between atoms: _386  and  _387
REMARK  160  A    between atoms: _391  and  _393
REMARK  161  A    between atoms: _393  and  _394
REMARK  162  A    between atoms: _393  and  _396
REMARK  163  A    between atoms: _396  and  _397
REMARK  164  A    between atoms: _397  and  _398
REMARK  165  A    between atoms: _400  and  _402
REMARK  166  A    between atoms: _402  and  _403
REMARK  167  A    between atoms: _402  and  _405
REMARK  168  A    between atoms: _405  and  _406
REMARK  169  A    between atoms: _409  and  _411
REMARK  170  A    between atoms: _411  and  _412
REMARK  171  A    between atoms: _414  and  _416
REMARK  172  A    between atoms: _416  and  _417
REMARK  173  A    between atoms: _419  and  _421
REMARK  174  A    between atoms: _421  and  _422
REMARK  175  A    between atoms: _421  and  _424
REMARK  176  A    between atoms: _424  and  _425
REMARK  177  A    between atoms: _428  and  _430
REMARK  178  A    between atoms: _430  and  _431
REMARK  179  A    between atoms: _433  and  _435
REMARK  180  A    between atoms: _435  and  _436
REMARK  181  A    between atoms: _438  and  _440
REMARK  182  A    between atoms: _440  and  _441
REMARK  183  A    between atoms: _440  and  _443
REMARK  184  A    between atoms: _443  and  _444
REMARK  185  A    between atoms: _450  and  _452
REMARK  186  A    between atoms: _452  and  _453
REMARK  187  A    between atoms: _452  and  _455
REMARK  188  A    between atoms: _455  and  _456
REMARK  189  A    between atoms: _459  and  _461
REMARK  190  A    between atoms: _461  and  _462
REMARK  191  A    between atoms: _461  and  _464
REMARK  192  A    between atoms: _467  and  _469
REMARK  193  A    between atoms: _469  and  _470
REMARK  194  A    between atoms: _469  and  _472
REMARK  195  A    between atoms: _472  and  _473
REMARK  196  A    between atoms: _476  and  _478
REMARK  197  A    between atoms: _478  and  _479
REMARK  198  A    between atoms: _478  and  _481
REMARK  199  A    between atoms: _481  and  _482
REMARK  200  A    between atoms: _486  and  _487
REMARK  201  A    between atoms: _492  and  _494
REMARK  202  A    between atoms: _494  and  _495
REMARK  203  A    between atoms: _494  and  _497
REMARK  204  A    between atoms: _500  and  _502
REMARK  205  A    between atoms: _502  and  _503
REMARK  206  A    between atoms: _502  and  _505
REMARK  207  A    between atoms: _505  and  _506
REMARK  208  A    between atoms: _511  and  _513
REMARK  209  A    between atoms: _513  and  _514
REMARK  210  A    between atoms: _513  and  _516
REMARK  211  A    between atoms: _516  and  _517
REMARK  212  A    between atoms: _520  and  _522
REMARK  213  A    between atoms: _522  and  _523
REMARK  214  A    between atoms: _522  and  _525
REMARK  215  A    between atoms: _525  and  _526
REMARK  216  A    between atoms: _529  and  _531
REMARK  217  A    between atoms: _531  and  _532
REMARK  218  A    between atoms: _534  and  _536
REMARK  219  A    between atoms: _536  and  _537
REMARK  220  A    between atoms: _536  and  _539
REMARK  221  A    between atoms: _539  and  _540
REMARK  222  A    between atoms: _540  and  _541
REMARK  223  A    between atoms: _541  and  _542
REMARK  224  A    between atoms: _551  and  _553
REMARK  225  A    between atoms: _553  and  _554
REMARK  226  A    between atoms: _553  and  _556
REMARK  227  A    between atoms: _556  and  _557
REMARK                            x       y       z     vdW  Elec       q    Type
REMARK                         _______ _______ _______ _____ _____    ______ ____
ROOT
ATOM      1  O   HOH     1      15.347  15.076   8.026  0.00  0.00    +0.000 OA
ENDROOT
TORSDOF 0
REMARK  Name = ../refined-set-2016/3a2o/3a2o_pocket.pdb
REMARK  227 active torsions:
REMARK  status: ('A' for Active; 'I' for Inactive)
REMARK    1  A    between atoms: _1  and  _3
REMARK    2  A    between atoms: _3  and  _4
REMARK    3  A    between atoms: _3  and  _6
REMARK    4  A    between atoms: _6  and  _7
REMARK    5  A    between atoms: _7  and  _8
REMARK    6  A    between atoms: _8  and  _9
REMARK    7  A    between atoms: _18  and  _20
REMARK    8  A    between atoms: _20  and  _21
REMARK    9  A    between atoms: _20  and  _23
REMARK   10  A    between atoms: _23  and  _24
REMARK   11  A    between atoms: _27  and  _29
REMARK   12  A    between atoms: _29  and  _30
REMARK   13  A    between atoms: _29  and  _32
REMARK   14  A    between atoms: _32  and  _33
REMARK   15  A    between atoms: _36  and  _38
REMARK   16  A    between atoms: _38  and  _39
REMARK   17  A    between atoms: _38  and  _41
REMARK   18  A    between atoms: _41  and  _42
REMARK   19  A    between atoms: _45  and  _47
REMARK   20  A    between atoms: _47  and  _48
REMARK   21  A    between atoms: _47  and  _50
REMARK   22  A    between atoms: _50  and  _51
REMARK   23  A    between atoms: _54  and  _56
REMARK   24  A    between atoms: _56  and  _57
REMARK   25  A    between atoms: _59  and  _61
REMARK   26  A    between atoms: _61  and  _62
REMARK   27  A    between atoms: _65  and  _67
REMARK   28  A    between atoms: _67  and  _68
REMARK   29  A    between atoms: _67  and  _70
REMARK   30  A    between atoms: _70  and  _71
REMARK   31  A    between atoms: _74  and  _76
REMARK   32  A    between atoms: _76  and  _77
REMARK   33  A    between atoms: _76  and  _79
REMARK   34  A    between atoms: _79  and  _80
REMARK   35  A    between atoms: _83  and  _85
REMARK   36  A    between atoms: _85  and  _86
REMARK   37  A    between atoms: _85  and  _88
REMARK   38  A    between atoms: _88  and  _89
REMARK   39  A    between atoms: _92  and  _94
REMARK   40  A    between atoms: _94  and  _95
REMARK   41  A    between atoms: _94  and  _97
REMARK   42  A    between atoms: _100  and  _102
REMARK   43  A    between atoms: _102  and  _103
REMARK   44  A    between atoms: _102  and  _105
REMARK   45  A    between atoms: _106  and  _107
REMARK   46  A    between atoms: _107  and  _108
REMARK   47  A    between atoms: _108  and  _109
REMARK   48  A    between atoms: _113  and  _115
REMARK   49  A    between atoms: _115  and  _116
REMARK   50  A    between atoms: _115  and  _118
REMARK   51  A    between atoms: _118  and  _119
REMARK   52  A    between atoms: _119  and  _120
REMARK   53  A    between atoms: _122  and  _124
REMARK   54  A    between atoms: _124  and  _125
REMARK   55  A    between atoms: _124  and  _127
REMARK   56  A    between atoms: _127  and  _128
REMARK   57  A    between atoms: _131  and  _133
REMARK   58  A    between atoms: _133  and  _134
REMARK   59  A    between atoms: _136  and  _138
REMARK   60  A    between atoms: _138  and  _139
REMARK   61  A    between atoms: _141  and  _143
REMARK   62  A    between atoms: _143  and  _144
REMARK   63  A    between atoms: _143  and  _146
REMARK   64  A    between atoms: _146  and  _147
REMARK   65  A    between atoms: _150  and  _152
REMARK   66  A    between atoms: _152  and  _153
REMARK   67  A    between atoms: _155  and  _157
REMARK   68  A    between atoms: _157  and  _158
REMARK   69  A    between atoms: _160  and  _162
REMARK   70  A    between atoms: _162  and  _163
REMARK   71  A    between atoms: _162  and  _165
REMARK   72  A    between atoms: _165  and  _166
REMARK   73  A    between atoms: _169  and  _171
REMARK   74  A    between atoms: _171  and  _172
REMARK   75  A    between atoms: _171  and  _174
REMARK   76  A    between atoms: _177  and  _179
REMARK   77  A    between atoms: _179  and  _180
REMARK   78  A    between atoms: _179  and  _182
REMARK   79  A    between atoms: _182  and  _183
REMARK   80  A    between atoms: _187  and  _188
REMARK   81  A    between atoms: _193  and  _195
REMARK   82  A    between atoms: _195  and  _196
REMARK   83  A    between atoms: _195  and  _198
REMARK   84  A    between atoms: _198  and  _199
REMARK   85  A    between atoms: _203  and  _204
REMARK   86  A    between atoms: _209  and  _211
REMARK   87  A    between atoms: _211  and  _212
REMARK   88  A    between atoms: _211  and  _214
REMARK   89  A    between atoms: _217  and  _219
REMARK   90  A    between atoms: _219  and  _220
REMARK   91  A    between atoms: _219  and  _222
REMARK   92  A    between atoms: _222  and  _223
REMARK   93  A    between atoms: _228  and  _230
REMARK   94  A    between atoms: _230  and  _231
REMARK   95  A    between atoms: _230  and  _233
REMARK   96  A    between atoms: _233  and  _234
REMARK   97  A    between atoms: _237  and  _239
REMARK   98  A    between atoms: _239  and  _240
REMARK   99  A    between atoms: _239  and  _242
REMARK  100  A    between atoms: _242  and  _243
REMARK  101  A    between atoms: _246  and  _248
REMARK  102  A    between atoms: _248  and  _249
REMARK  103  A    between atoms: _251  and  _253
REMARK  104  A    between atoms: _253  and  _254
REMARK  105  A    between atoms: _253  and  _256
REMARK  106  A    between atoms: _256  and  _257
REMARK  107  A    between atoms: _257  and  _258
REMARK  108  A    between atoms: _258  and  _259
REMARK  109  A    between atoms: _268  and  _270
REMARK  110  A    between atoms: _270  and  _271
REMARK  111  A    between atoms: _270  and  _273
REMARK  112  A    between atoms: _273  and  _274
REMARK  113  A    between atoms: _279  and  _281
REMARK  114  A    between atoms: _281  and  _282
REMARK  115  A    between atoms: _281  and  _284
REMARK  116  A    between atoms: _284  and  _285
REMARK  117  A    between atoms: _285  and  _286
REMARK  118  A    between atoms: _286  and  _287
REMARK  119  A    between atoms: _296  and  _298
REMARK  120  A    between atoms: _298  and  _299
REMARK  121  A    between atoms: _298  and  _301
REMARK  122  A    between atoms: _301  and  _302
REMARK  123  A    between atoms: _305  and  _307
REMARK  124  A    between atoms: _307  and  _308
REMARK  125  A    between atoms: _307  and  _310
REMARK  126  A    between atoms: _310  and  _311
REMARK  127  A    between atoms: _314  and  _316
REMARK  128  A    between atoms: _316  and  _317
REMARK  129  A    between atoms: _316  and  _319
REMARK  130  A    between atoms: _319  and  _320
REMARK  131  A    between atoms: _323  and  _325
REMARK  132  A    between atoms: _325  and  _326
REMARK  133  A    between atoms: _325  and  _328
REMARK  134  A    between atoms: _328  and  _329
REMARK  135  A    between atoms: _332  and  _334
REMARK  136  A    between atoms: _334  and  _335
REMARK  137  A    between atoms: _337  and  _339
REMARK  138  A    between atoms: _339  and  _340
REMARK  139  A    between atoms: _343  and  _345
REMARK  140  A    between atoms: _345  and  _346
REMARK  141  A    between atoms: _345  and  _348
REMARK  142  A    between atoms: _348  and  _349
REMARK  143  A    between atoms: _352  and  _354
REMARK  144  A    between atoms: _354  and  _355
REMARK  145  A    between atoms: _354  and  _357
REMARK  146  A    between atoms: _357  and  _358
REMARK  147  A    between atoms: _361  and  _363
REMARK  148  A    between atoms: _363  and  _364
REMARK  149  A    between atoms: _363  and  _366
REMARK  150  A    between atoms: _366  and  _367
REMARK  151  A    between atoms: _370  and  _372
REMARK  152  A    between atoms: _372  and  _373
REMARK  153  A    between atoms: _372  and  _375
REMARK  154  A    between atoms: _378  and  _380
REMARK  155  A    between atoms: _380  and  _381
REMARK  156  A    between atoms: _380  and  _383
REMARK  157  A    between atoms: _384  and  _385
REMARK  158  A    between atoms: _385  and  _386
REMARK  159  A    between atoms: _386  and  _387
REMARK  160  A    between atoms: _391  and  _393
REMARK  161  A    between atoms: _393  and  _394
REMARK  162  A    between atoms: _393  and  _396
REMARK  163  A    between atoms: _396  and  _397
REMARK  164  A    between atoms: _397  and  _398
REMARK  165  A    between atoms: _400  and  _402
REMARK  166  A    between atoms: _402  and  _403
REMARK  167  A    between atoms: _402  and  _405
REMARK  168  A    between atoms: _405  and  _406
REMARK  169  A    between atoms: _409  and  _411
REMARK  170  A    between atoms: _411  and  _412
REMARK  171  A    between atoms: _414  and  _416
REMARK  172  A    between atoms: _416  and  _417
REMARK  173  A    between atoms: _419  and  _421
REMARK  174  A    between atoms: _421  and  _422
REMARK  175  A    between atoms: _421  and  _424
REMARK  176  A    between atoms: _424  and  _425
REMARK  177  A    between atoms: _428  and  _430
REMARK  178  A    between atoms: _430  and  _431
REMARK  179  A    between atoms: _433  and  _435
REMARK  180  A    between atoms: _435  and  _436
REMARK  181  A    between atoms: _438  and  _440
REMARK  182  A    between atoms: _440  and  _441
REMARK  183  A    between atoms: _440  and  _443
REMARK  184  A    between atoms: _443  and  _444
REMARK  185  A    between atoms: _450  and  _452
REMARK  186  A    between atoms: _452  and  _453
REMARK  187  A    between atoms: _452  and  _455
REMARK  188  A    between atoms: _455  and  _456
REMARK  189  A    between atoms: _459  and  _461
REMARK  190  A    between atoms: _461  and  _462
REMARK  191  A    between atoms: _461  and  _464
REMARK  192  A    between atoms: _467  and  _469
REMARK  193  A    between atoms: _469  and  _470
REMARK  194  A    between atoms: _469  and  _472
REMARK  195  A    between atoms: _472  and  _473
REMARK  196  A    between atoms: _476  and  _478
REMARK  197  A    between atoms: _478  and  _479
REMARK  198  A    between atoms: _478  and  _481
REMARK  199  A    between atoms: _481  and  _482
REMARK  200  A    between atoms: _486  and  _487
REMARK  201  A    between atoms: _492  and  _494
REMARK  202  A    between atoms: _494  and  _495
REMARK  203  A    between atoms: _494  and  _497
REMARK  204  A    between atoms: _500  and  _502
REMARK  205  A    between atoms: _502  and  _503
REMARK  206  A    between atoms: _502  and  _505
REMARK  207  A    between atoms: _505  and  _506
REMARK  208  A    between atoms: _511  and  _513
REMARK  209  A    between atoms: _513  and  _514
REMARK  210  A    between atoms: _513  and  _516
REMARK  211  A    between atoms: _516  and  _517
REMARK  212  A    between atoms: _520  and  _522
REMARK  213  A    between atoms: _522  and  _523
REMARK  214  A    between atoms: _522  and  _525
REMARK  215  A    between atoms: _525  and  _526
REMARK  216  A    between atoms: _529  and  _531
REMARK  217  A    between atoms: _531  and  _532
REMARK  218  A    between atoms: _534  and  _536
REMARK  219  A    between atoms: _536  and  _537
REMARK  220  A    between atoms: _536  and  _539
REMARK  221  A    between atoms: _539  and  _540
REMARK  222  A    between atoms: _540  and  _541
REMARK  223  A    between atoms: _541  and  _542
REMARK  224  A    between atoms: _551  and  _553
REMARK  225  A    between atoms: _553  and  _554
REMARK  226  A    between atoms: _553  and  _556
REMARK  227  A    between atoms: _556  and  _557
REMARK                            x       y       z     vdW  Elec       q    Type
REMARK                         _______ _______ _______ _____ _____    ______ ____
ROOT
ATOM      1  O   HOH     1       7.126  16.601  12.151  0.00  0.00    +0.000 OA
ENDROOT
TORSDOF 0
REMARK  Name = ../refined-set-2016/3a2o/3a2o_pocket.pdb
REMARK  227 active torsions:
REMARK  status: ('A' for Active; 'I' for Inactive)
REMARK    1  A    between atoms: _1  and  _3
REMARK    2  A    between atoms: _3  and  _4
REMARK    3  A    between atoms: _3  and  _6
REMARK    4  A    between atoms: _6  and  _7
REMARK    5  A    between atoms: _7  and  _8
REMARK    6  A    between atoms: _8  and  _9
REMARK    7  A    between atoms: _18  and  _20
REMARK    8  A    between atoms: _20  and  _21
REMARK    9  A    between atoms: _20  and  _23
REMARK   10  A    between atoms: _23  and  _24
REMARK   11  A    between atoms: _27  and  _29
REMARK   12  A    between atoms: _29  and  _30
REMARK   13  A    between atoms: _29  and  _32
REMARK   14  A    between atoms: _32  and  _33
REMARK   15  A    between atoms: _36  and  _38
REMARK   16  A    between atoms: _38  and  _39
REMARK   17  A    between atoms: _38  and  _41
REMARK   18  A    between atoms: _41  and  _42
REMARK   19  A    between atoms: _45  and  _47
REMARK   20  A    between atoms: _47  and  _48
REMARK   21  A    between atoms: _47  and  _50
REMARK   22  A    between atoms: _50  and  _51
REMARK   23  A    between atoms: _54  and  _56
REMARK   24  A    between atoms: _56  and  _57
REMARK   25  A    between atoms: _59  and  _61
REMARK   26  A    between atoms: _61  and  _62
REMARK   27  A    between atoms: _65  and  _67
REMARK   28  A    between atoms: _67  and  _68
REMARK   29  A    between atoms: _67  and  _70
REMARK   30  A    between atoms: _70  and  _71
REMARK   31  A    between atoms: _74  and  _76
REMARK   32  A    between atoms: _76  and  _77
REMARK   33  A    between atoms: _76  and  _79
REMARK   34  A    between atoms: _79  and  _80
REMARK   35  A    between atoms: _83  and  _85
REMARK   36  A    between atoms: _85  and  _86
REMARK   37  A    between atoms: _85  and  _88
REMARK   38  A    between atoms: _88  and  _89
REMARK   39  A    between atoms: _92  and  _94
REMARK   40  A    between atoms: _94  and  _95
REMARK   41  A    between atoms: _94  and  _97
REMARK   42  A    between atoms: _100  and  _102
REMARK   43  A    between atoms: _102  and  _103
REMARK   44  A    between atoms: _102  and  _105
REMARK   45  A    between atoms: _106  and  _107
REMARK   46  A    between atoms: _107  and  _108
REMARK   47  A    between atoms: _108  and  _109
REMARK   48  A    between atoms: _113  and  _115
REMARK   49  A    between atoms: _115  and  _116
REMARK   50  A    between atoms: _115  and  _118
REMARK   51  A    between atoms: _118  and  _119
REMARK   52  A    between atoms: _119  and  _120
REMARK   53  A    between atoms: _122  and  _124
REMARK   54  A    between atoms: _124  and  _125
REMARK   55  A    between atoms: _124  and  _127
REMARK   56  A    between atoms: _127  and  _128
REMARK   57  A    between atoms: _131  and  _133
REMARK   58  A    between atoms: _133  and  _134
REMARK   59  A    between atoms: _136  and  _138
REMARK   60  A    between atoms: _138  and  _139
REMARK   61  A    between atoms: _141  and  _143
REMARK   62  A    between atoms: _143  and  _144
REMARK   63  A    between atoms: _143  and  _146
REMARK   64  A    between atoms: _146  and  _147
REMARK   65  A    between atoms: _150  and  _152
REMARK   66  A    between atoms: _152  and  _153
REMARK   67  A    between atoms: _155  and  _157
REMARK   68  A    between atoms: _157  and  _158
REMARK   69  A    between atoms: _160  and  _162
REMARK   70  A    between atoms: _162  and  _163
REMARK   71  A    between atoms: _162  and  _165
REMARK   72  A    between atoms: _165  and  _166
REMARK   73  A    between atoms: _169  and  _171
REMARK   74  A    between atoms: _171  and  _172
REMARK   75  A    between atoms: _171  and  _174
REMARK   76  A    between atoms: _177  and  _179
REMARK   77  A    between atoms: _179  and  _180
REMARK   78  A    between atoms: _179  and  _182
REMARK   79  A    between atoms: _182  and  _183
REMARK   80  A    between atoms: _187  and  _188
REMARK   81  A    between atoms: _193  and  _195
REMARK   82  A    between atoms: _195  and  _196
REMARK   83  A    between atoms: _195  and  _198
REMARK   84  A    between atoms: _198  and  _199
REMARK   85  A    between atoms: _203  and  _204
REMARK   86  A    between atoms: _209  and  _211
REMARK   87  A    between atoms: _211  and  _212
REMARK   88  A    between atoms: _211  and  _214
REMARK   89  A    between atoms: _217  and  _219
REMARK   90  A    between atoms: _219  and  _220
REMARK   91  A    between atoms: _219  and  _222
REMARK   92  A    between atoms: _222  and  _223
REMARK   93  A    between atoms: _228  and  _230
REMARK   94  A    between atoms: _230  and  _231
REMARK   95  A    between atoms: _230  and  _233
REMARK   96  A    between atoms: _233  and  _234
REMARK   97  A    between atoms: _237  and  _239
REMARK   98  A    between atoms: _239  and  _240
REMARK   99  A    between atoms: _239  and  _242
REMARK  100  A    between atoms: _242  and  _243
REMARK  101  A    between atoms: _246  and  _248
REMARK  102  A    between atoms: _248  and  _249
REMARK  103  A    between atoms: _251  and  _253
REMARK  104  A    between atoms: _253  and  _254
REMARK  105  A    between atoms: _253  and  _256
REMARK  106  A    between atoms: _256  and  _257
REMARK  107  A    between atoms: _257  and  _258
REMARK  108  A    between atoms: _258  and  _259
REMARK  109  A    between atoms: _268  and  _270
REMARK  110  A    between atoms: _270  and  _271
REMARK  111  A    between atoms: _270  and  _273
REMARK  112  A    between atoms: _273  and  _274
REMARK  113  A    between atoms: _279  and  _281
REMARK  114  A    between atoms: _281  and  _282
REMARK  115  A    between atoms: _281  and  _284
REMARK  116  A    between atoms: _284  and  _285
REMARK  117  A    between atoms: _285  and  _286
REMARK  118  A    between atoms: _286  and  _287
REMARK  119  A    between atoms: _296  and  _298
REMARK  120  A    between atoms: _298  and  _299
REMARK  121  A    between atoms: _298  and  _301
REMARK  122  A    between atoms: _301  and  _302
REMARK  123  A    between atoms: _305  and  _307
REMARK  124  A    between atoms: _307  and  _308
REMARK  125  A    between atoms: _307  and  _310
REMARK  126  A    between atoms: _310  and  _311
REMARK  127  A    between atoms: _314  and  _316
REMARK  128  A    between atoms: _316  and  _317
REMARK  129  A    between atoms: _316  and  _319
REMARK  130  A    between atoms: _319  and  _320
REMARK  131  A    between atoms: _323  and  _325
REMARK  132  A    between atoms: _325  and  _326
REMARK  133  A    between atoms: _325  and  _328
REMARK  134  A    between atoms: _328  and  _329
REMARK  135  A    between atoms: _332  and  _334
REMARK  136  A    between atoms: _334  and  _335
REMARK  137  A    between atoms: _337  and  _339
REMARK  138  A    between atoms: _339  and  _340
REMARK  139  A    between atoms: _343  and  _345
REMARK  140  A    between atoms: _345  and  _346
REMARK  141  A    between atoms: _345  and  _348
REMARK  142  A    between atoms: _348  and  _349
REMARK  143  A    between atoms: _352  and  _354
REMARK  144  A    between atoms: _354  and  _355
REMARK  145  A    between atoms: _354  and  _357
REMARK  146  A    between atoms: _357  and  _358
REMARK  147  A    between atoms: _361  and  _363
REMARK  148  A    between atoms: _363  and  _364
REMARK  149  A    between atoms: _363  and  _366
REMARK  150  A    between atoms: _366  and  _367
REMARK  151  A    between atoms: _370  and  _372
REMARK  152  A    between atoms: _372  and  _373
REMARK  153  A    between atoms: _372  and  _375
REMARK  154  A    between atoms: _378  and  _380
REMARK  155  A    between atoms: _380  and  _381
REMARK  156  A    between atoms: _380  and  _383
REMARK  157  A    between atoms: _384  and  _385
REMARK  158  A    between atoms: _385  and  _386
REMARK  159  A    between atoms: _386  and  _387
REMARK  160  A    between atoms: _391  and  _393
REMARK  161  A    between atoms: _393  and  _394
REMARK  162  A    between atoms: _393  and  _396
REMARK  163  A    between atoms: _396  and  _397
REMARK  164  A    between atoms: _397  and  _398
REMARK  165  A    between atoms: _400  and  _402
REMARK  166  A    between atoms: _402  and  _403
REMARK  167  A    between atoms: _402  and  _405
REMARK  168  A    between atoms: _405  and  _406
REMARK  169  A    between atoms: _409  and  _411
REMARK  170  A    between atoms: _411  and  _412
REMARK  171  A    between atoms: _414  and  _416
REMARK  172  A    between atoms: _416  and  _417
REMARK  173  A    between atoms: _419  and  _421
REMARK  174  A    between atoms: _421  and  _422
REMARK  175  A    between atoms: _421  and  _424
REMARK  176  A    between atoms: _424  and  _425
REMARK  177  A    between atoms: _428  and  _430
REMARK  178  A    between atoms: _430  and  _431
REMARK  179  A    between atoms: _433  and  _435
REMARK  180  A    between atoms: _435  and  _436
REMARK  181  A    between atoms: _438  and  _440
REMARK  182  A    between atoms: _440  and  _441
REMARK  183  A    between atoms: _440  and  _443
REMARK  184  A    between atoms: _443  and  _444
REMARK  185  A    between atoms: _450  and  _452
REMARK  186  A    between atoms: _452  and  _453
REMARK  187  A    between atoms: _452  and  _455
REMARK  188  A    between atoms: _455  and  _456
REMARK  189  A    between atoms: _459  and  _461
REMARK  190  A    between atoms: _461  and  _462
REMARK  191  A    between atoms: _461  and  _464
REMARK  192  A    between atoms: _467  and  _469
REMARK  193  A    between atoms: _469  and  _470
REMARK  194  A    between atoms: _469  and  _472
REMARK  195  A    between atoms: _472  and  _473
REMARK  196  A    between atoms: _476  and  _478
REMARK  197  A    between atoms: _478  and  _479
REMARK  198  A    between atoms: _478  and  _481
REMARK  199  A    between atoms: _481  and  _482
REMARK  200  A    between atoms: _486  and  _487
REMARK  201  A    between atoms: _492  and  _494
REMARK  202  A    between atoms: _494  and  _495
REMARK  203  A    between atoms: _494  and  _497
REMARK  204  A    between atoms: _500  and  _502
REMARK  205  A    between atoms: _502  and  _503
REMARK  206  A    between atoms: _502  and  _505
REMARK  207  A    between atoms: _505  and  _506
REMARK  208  A    between atoms: _511  and  _513
REMARK  209  A    between atoms: _513  and  _514
REMARK  210  A    between atoms: _513  and  _516
REMARK  211  A    between atoms: _516  and  _517
REMARK  212  A    between atoms: _520  and  _522
REMARK  213  A    between atoms: _522  and  _523
REMARK  214  A    between atoms: _522  and  _525
REMARK  215  A    between atoms: _525  and  _526
REMARK  216  A    between atoms: _529  and  _531
REMARK  217  A    between atoms: _531  and  _532
REMARK  218  A    between atoms: _534  and  _536
REMARK  219  A    between atoms: _536  and  _537
REMARK  220  A    between atoms: _536  and  _539
REMARK  221  A    between atoms: _539  and  _540
REMARK  222  A    between atoms: _540  and  _541
REMARK  223  A    between atoms: _541  and  _542
REMARK  224  A    between atoms: _551  and  _553
REMARK  225  A    between atoms: _553  and  _554
REMARK  226  A    between atoms: _553  and  _556
REMARK  227  A    between atoms: _556  and  _557
REMARK                            x       y       z     vdW  Elec       q    Type
REMARK                         _______ _______ _______ _____ _____    ______ ____
ROOT
ATOM      1  O   HOH     1      24.848  23.480  21.414  0.00  0.00    +0.000 OA
ENDROOT
TORSDOF 0
REMARK  Name = ../refined-set-2016/3a2o/3a2o_pocket.pdb
REMARK  227 active torsions:
REMARK  status: ('A' for Active; 'I' for Inactive)
REMARK    1  A    between atoms: _1  and  _3
REMARK    2  A    between atoms: _3  and  _4
REMARK    3  A    between atoms: _3  and  _6
REMARK    4  A    between atoms: _6  and  _7
REMARK    5  A    between atoms: _7  and  _8
REMARK    6  A    between atoms: _8  and  _9
REMARK    7  A    between atoms: _18  and  _20
REMARK    8  A    between atoms: _20  and  _21
REMARK    9  A    between atoms: _20  and  _23
REMARK   10  A    between atoms: _23  and  _24
REMARK   11  A    between atoms: _27  and  _29
REMARK   12  A    between atoms: _29  and  _30
REMARK   13  A    between atoms: _29  and  _32
REMARK   14  A    between atoms: _32  and  _33
REMARK   15  A    between atoms: _36  and  _38
REMARK   16  A    between atoms: _38  and  _39
REMARK   17  A    between atoms: _38  and  _41
REMARK   18  A    between atoms: _41  and  _42
REMARK   19  A    between atoms: _45  and  _47
REMARK   20  A    between atoms: _47  and  _48
REMARK   21  A    between atoms: _47  and  _50
REMARK   22  A    between atoms: _50  and  _51
REMARK   23  A    between atoms: _54  and  _56
REMARK   24  A    between atoms: _56  and  _57
REMARK   25  A    between atoms: _59  and  _61
REMARK   26  A    between atoms: _61  and  _62
REMARK   27  A    between atoms: _65  and  _67
REMARK   28  A    between atoms: _67  and  _68
REMARK   29  A    between atoms: _67  and  _70
REMARK   30  A    between atoms: _70  and  _71
REMARK   31  A    between atoms: _74  and  _76
REMARK   32  A    between atoms: _76  and  _77
REMARK   33  A    between atoms: _76  and  _79
REMARK   34  A    between atoms: _79  and  _80
REMARK   35  A    between atoms: _83  and  _85
REMARK   36  A    between atoms: _85  and  _86
REMARK   37  A    between atoms: _85  and  _88
REMARK   38  A    between atoms: _88  and  _89
REMARK   39  A    between atoms: _92  and  _94
REMARK   40  A    between atoms: _94  and  _95
REMARK   41  A    between atoms: _94  and  _97
REMARK   42  A    between atoms: _100  and  _102
REMARK   43  A    between atoms: _102  and  _103
REMARK   44  A    between atoms: _102  and  _105
REMARK   45  A    between atoms: _106  and  _107
REMARK   46  A    between atoms: _107  and  _108
REMARK   47  A    between atoms: _108  and  _109
REMARK   48  A    between atoms: _113  and  _115
REMARK   49  A    between atoms: _115  and  _116
REMARK   50  A    between atoms: _115  and  _118
REMARK   51  A    between atoms: _118  and  _119
REMARK   52  A    between atoms: _119  and  _120
REMARK   53  A    between atoms: _122  and  _124
REMARK   54  A    between atoms: _124  and  _125
REMARK   55  A    between atoms: _124  and  _127
REMARK   56  A    between atoms: _127  and  _128
REMARK   57  A    between atoms: _131  and  _133
REMARK   58  A    between atoms: _133  and  _134
REMARK   59  A    between atoms: _136  and  _138
REMARK   60  A    between atoms: _138  and  _139
REMARK   61  A    between atoms: _141  and  _143
REMARK   62  A    between atoms: _143  and  _144
REMARK   63  A    between atoms: _143  and  _146
REMARK   64  A    between atoms: _146  and  _147
REMARK   65  A    between atoms: _150  and  _152
REMARK   66  A    between atoms: _152  and  _153
REMARK   67  A    between atoms: _155  and  _157
REMARK   68  A    between atoms: _157  and  _158
REMARK   69  A    between atoms: _160  and  _162
REMARK   70  A    between atoms: _162  and  _163
REMARK   71  A    between atoms: _162  and  _165
REMARK   72  A    between atoms: _165  and  _166
REMARK   73  A    between atoms: _169  and  _171
REMARK   74  A    between atoms: _171  and  _172
REMARK   75  A    between atoms: _171  and  _174
REMARK   76  A    between atoms: _177  and  _179
REMARK   77  A    between atoms: _179  and  _180
REMARK   78  A    between atoms: _179  and  _182
REMARK   79  A    between atoms: _182  and  _183
REMARK   80  A    between atoms: _187  and  _188
REMARK   81  A    between atoms: _193  and  _195
REMARK   82  A    between atoms: _195  and  _196
REMARK   83  A    between atoms: _195  and  _198
REMARK   84  A    between atoms: _198  and  _199
REMARK   85  A    between atoms: _203  and  _204
REMARK   86  A    between atoms: _209  and  _211
REMARK   87  A    between atoms: _211  and  _212
REMARK   88  A    between atoms: _211  and  _214
REMARK   89  A    between atoms: _217  and  _219
REMARK   90  A    between atoms: _219  and  _220
REMARK   91  A    between atoms: _219  and  _222
REMARK   92  A    between atoms: _222  and  _223
REMARK   93  A    between atoms: _228  and  _230
REMARK   94  A    between atoms: _230  and  _231
REMARK   95  A    between atoms: _230  and  _233
REMARK   96  A    between atoms: _233  and  _234
REMARK   97  A    between atoms: _237  and  _239
REMARK   98  A    between atoms: _239  and  _240
REMARK   99  A    between atoms: _239  and  _242
REMARK  100  A    between atoms: _242  and  _243
REMARK  101  A    between atoms: _246  and  _248
REMARK  102  A    between atoms: _248  and  _249
REMARK  103  A    between atoms: _251  and  _253
REMARK  104  A    between atoms: _253  and  _254
REMARK  105  A    between atoms: _253  and  _256
REMARK  106  A    between atoms: _256  and  _257
REMARK  107  A    between atoms: _257  and  _258
REMARK  108  A    between atoms: _258  and  _259
REMARK  109  A    between atoms: _268  and  _270
REMARK  110  A    between atoms: _270  and  _271
REMARK  111  A    between atoms: _270  and  _273
REMARK  112  A    between atoms: _273  and  _274
REMARK  113  A    between atoms: _279  and  _281
REMARK  114  A    between atoms: _281  and  _282
REMARK  115  A    between atoms: _281  and  _284
REMARK  116  A    between atoms: _284  and  _285
REMARK  117  A    between atoms: _285  and  _286
REMARK  118  A    between atoms: _286  and  _287
REMARK  119  A    between atoms: _296  and  _298
REMARK  120  A    between atoms: _298  and  _299
REMARK  121  A    between atoms: _298  and  _301
REMARK  122  A    between atoms: _301  and  _302
REMARK  123  A    between atoms: _305  and  _307
REMARK  124  A    between atoms: _307  and  _308
REMARK  125  A    between atoms: _307  and  _310
REMARK  126  A    between atoms: _310  and  _311
REMARK  127  A    between atoms: _314  and  _316
REMARK  128  A    between atoms: _316  and  _317
REMARK  129  A    between atoms: _316  and  _319
REMARK  130  A    between atoms: _319  and  _320
REMARK  131  A    between atoms: _323  and  _325
REMARK  132  A    between atoms: _325  and  _326
REMARK  133  A    between atoms: _325  and  _328
REMARK  134  A    between atoms: _328  and  _329
REMARK  135  A    between atoms: _332  and  _334
REMARK  136  A    between atoms: _334  and  _335
REMARK  137  A    between atoms: _337  and  _339
REMARK  138  A    between atoms: _339  and  _340
REMARK  139  A    between atoms: _343  and  _345
REMARK  140  A    between atoms: _345  and  _346
REMARK  141  A    between atoms: _345  and  _348
REMARK  142  A    between atoms: _348  and  _349
REMARK  143  A    between atoms: _352  and  _354
REMARK  144  A    between atoms: _354  and  _355
REMARK  145  A    between atoms: _354  and  _357
REMARK  146  A    between atoms: _357  and  _358
REMARK  147  A    between atoms: _361  and  _363
REMARK  148  A    between atoms: _363  and  _364
REMARK  149  A    between atoms: _363  and  _366
REMARK  150  A    between atoms: _366  and  _367
REMARK  151  A    between atoms: _370  and  _372
REMARK  152  A    between atoms: _372  and  _373
REMARK  153  A    between atoms: _372  and  _375
REMARK  154  A    between atoms: _378  and  _380
REMARK  155  A    between atoms: _380  and  _381
REMARK  156  A    between atoms: _380  and  _383
REMARK  157  A    between atoms: _384  and  _385
REMARK  158  A    between atoms: _385  and  _386
REMARK  159  A    between atoms: _386  and  _387
REMARK  160  A    between atoms: _391  and  _393
REMARK  161  A    between atoms: _393  and  _394
REMARK  162  A    between atoms: _393  and  _396
REMARK  163  A    between atoms: _396  and  _397
REMARK  164  A    between atoms: _397  and  _398
REMARK  165  A    between atoms: _400  and  _402
REMARK  166  A    between atoms: _402  and  _403
REMARK  167  A    between atoms: _402  and  _405
REMARK  168  A    between atoms: _405  and  _406
REMARK  169  A    between atoms: _409  and  _411
REMARK  170  A    between atoms: _411  and  _412
REMARK  171  A    between atoms: _414  and  _416
REMARK  172  A    between atoms: _416  and  _417
REMARK  173  A    between atoms: _419  and  _421
REMARK  174  A    between atoms: _421  and  _422
REMARK  175  A    between atoms: _421  and  _424
REMARK  176  A    between atoms: _424  and  _425
REMARK  177  A    between atoms: _428  and  _430
REMARK  178  A    between atoms: _430  and  _431
REMARK  179  A    between atoms: _433  and  _435
REMARK  180  A    between atoms: _435  and  _436
REMARK  181  A    between atoms: _438  and  _440
REMARK  182  A    between atoms: _440  and  _441
REMARK  183  A    between atoms: _440  and  _443
REMARK  184  A    between atoms: _443  and  _444
REMARK  185  A    between atoms: _450  and  _452
REMARK  186  A    between atoms: _452  and  _453
REMARK  187  A    between atoms: _452  and  _455
REMARK  188  A    between atoms: _455  and  _456
REMARK  189  A    between atoms: _459  and  _461
REMARK  190  A    between atoms: _461  and  _462
REMARK  191  A    between atoms: _461  and  _464
REMARK  192  A    between atoms: _467  and  _469
REMARK  193  A    between atoms: _469  and  _470
REMARK  194  A    between atoms: _469  and  _472
REMARK  195  A    between atoms: _472  and  _473
REMARK  196  A    between atoms: _476  and  _478
REMARK  197  A    between atoms: _478  and  _479
REMARK  198  A    between atoms: _478  and  _481
REMARK  199  A    between atoms: _481  and  _482
REMARK  200  A    between atoms: _486  and  _487
REMARK  201  A    between atoms: _492  and  _494
REMARK  202  A    between atoms: _494  and  _495
REMARK  203  A    between atoms: _494  and  _497
REMARK  204  A    between atoms: _500  and  _502
REMARK  205  A    between atoms: _502  and  _503
REMARK  206  A    between atoms: _502  and  _505
REMARK  207  A    between atoms: _505  and  _506
REMARK  208  A    between atoms: _511  and  _513
REMARK  209  A    between atoms: _513  and  _514
REMARK  210  A    between atoms: _513  and  _516
REMARK  211  A    between atoms: _516  and  _517
REMARK  212  A    between atoms: _520  and  _522
REMARK  213  A    between atoms: _522  and  _523
REMARK  214  A    between atoms: _522  and  _525
REMARK  215  A    between atoms: _525  and  _526
REMARK  216  A    between atoms: _529  and  _531
REMARK  217  A    between atoms: _531  and  _532
REMARK  218  A    between atoms: _534  and  _536
REMARK  219  A    between atoms: _536  and  _537
REMARK  220  A    between atoms: _536  and  _539
REMARK  221  A    between atoms: _539  and  _540
REMARK  222  A    between atoms: _540  and  _541
REMARK  223  A    between atoms: _541  and  _542
REMARK  224  A    between atoms: _551  and  _553
REMARK  225  A    between atoms: _553  and  _554
REMARK  226  A    between atoms: _553  and  _556
REMARK  227  A    between atoms: _556  and  _557
REMARK                            x       y       z     vdW  Elec       q    Type
REMARK                         _______ _______ _______ _____ _____    ______ ____
ROOT
ATOM      1  O   HOH     1      16.223  17.317   6.234  0.00  0.00    +0.000 OA
ENDROOT
TORSDOF 0
REMARK  Name = ../refined-set-2016/3a2o/3a2o_pocket.pdb
REMARK  227 active torsions:
REMARK  status: ('A' for Active; 'I' for Inactive)
REMARK    1  A    between atoms: _1  and  _3
REMARK    2  A    between atoms: _3  and  _4
REMARK    3  A    between atoms: _3  and  _6
REMARK    4  A    between atoms: _6  and  _7
REMARK    5  A    between atoms: _7  and  _8
REMARK    6  A    between atoms: _8  and  _9
REMARK    7  A    between atoms: _18  and  _20
REMARK    8  A    between atoms: _20  and  _21
REMARK    9  A    between atoms: _20  and  _23
REMARK   10  A    between atoms: _23  and  _24
REMARK   11  A    between atoms: _27  and  _29
REMARK   12  A    between atoms: _29  and  _30
REMARK   13  A    between atoms: _29  and  _32
REMARK   14  A    between atoms: _32  and  _33
REMARK   15  A    between atoms: _36  and  _38
REMARK   16  A    between atoms: _38  and  _39
REMARK   17  A    between atoms: _38  and  _41
REMARK   18  A    between atoms: _41  and  _42
REMARK   19  A    between atoms: _45  and  _47
REMARK   20  A    between atoms: _47  and  _48
REMARK   21  A    between atoms: _47  and  _50
REMARK   22  A    between atoms: _50  and  _51
REMARK   23  A    between atoms: _54  and  _56
REMARK   24  A    between atoms: _56  and  _57
REMARK   25  A    between atoms: _59  and  _61
REMARK   26  A    between atoms: _61  and  _62
REMARK   27  A    between atoms: _65  and  _67
REMARK   28  A    between atoms: _67  and  _68
REMARK   29  A    between atoms: _67  and  _70
REMARK   30  A    between atoms: _70  and  _71
REMARK   31  A    between atoms: _74  and  _76
REMARK   32  A    between atoms: _76  and  _77
REMARK   33  A    between atoms: _76  and  _79
REMARK   34  A    between atoms: _79  and  _80
REMARK   35  A    between atoms: _83  and  _85
REMARK   36  A    between atoms: _85  and  _86
REMARK   37  A    between atoms: _85  and  _88
REMARK   38  A    between atoms: _88  and  _89
REMARK   39  A    between atoms: _92  and  _94
REMARK   40  A    between atoms: _94  and  _95
REMARK   41  A    between atoms: _94  and  _97
REMARK   42  A    between atoms: _100  and  _102
REMARK   43  A    between atoms: _102  and  _103
REMARK   44  A    between atoms: _102  and  _105
REMARK   45  A    between atoms: _106  and  _107
REMARK   46  A    between atoms: _107  and  _108
REMARK   47  A    between atoms: _108  and  _109
REMARK   48  A    between atoms: _113  and  _115
REMARK   49  A    between atoms: _115  and  _116
REMARK   50  A    between atoms: _115  and  _118
REMARK   51  A    between atoms: _118  and  _119
REMARK   52  A    between atoms: _119  and  _120
REMARK   53  A    between atoms: _122  and  _124
REMARK   54  A    between atoms: _124  and  _125
REMARK   55  A    between atoms: _124  and  _127
REMARK   56  A    between atoms: _127  and  _128
REMARK   57  A    between atoms: _131  and  _133
REMARK   58  A    between atoms: _133  and  _134
REMARK   59  A    between atoms: _136  and  _138
REMARK   60  A    between atoms: _138  and  _139
REMARK   61  A    between atoms: _141  and  _143
REMARK   62  A    between atoms: _143  and  _144
REMARK   63  A    between atoms: _143  and  _146
REMARK   64  A    between atoms: _146  and  _147
REMARK   65  A    between atoms: _150  and  _152
REMARK   66  A    between atoms: _152  and  _153
REMARK   67  A    between atoms: _155  and  _157
REMARK   68  A    between atoms: _157  and  _158
REMARK   69  A    between atoms: _160  and  _162
REMARK   70  A    between atoms: _162  and  _163
REMARK   71  A    between atoms: _162  and  _165
REMARK   72  A    between atoms: _165  and  _166
REMARK   73  A    between atoms: _169  and  _171
REMARK   74  A    between atoms: _171  and  _172
REMARK   75  A    between atoms: _171  and  _174
REMARK   76  A    between atoms: _177  and  _179
REMARK   77  A    between atoms: _179  and  _180
REMARK   78  A    between atoms: _179  and  _182
REMARK   79  A    between atoms: _182  and  _183
REMARK   80  A    between atoms: _187  and  _188
REMARK   81  A    between atoms: _193  and  _195
REMARK   82  A    between atoms: _195  and  _196
REMARK   83  A    between atoms: _195  and  _198
REMARK   84  A    between atoms: _198  and  _199
REMARK   85  A    between atoms: _203  and  _204
REMARK   86  A    between atoms: _209  and  _211
REMARK   87  A    between atoms: _211  and  _212
REMARK   88  A    between atoms: _211  and  _214
REMARK   89  A    between atoms: _217  and  _219
REMARK   90  A    between atoms: _219  and  _220
REMARK   91  A    between atoms: _219  and  _222
REMARK   92  A    between atoms: _222  and  _223
REMARK   93  A    between atoms: _228  and  _230
REMARK   94  A    between atoms: _230  and  _231
REMARK   95  A    between atoms: _230  and  _233
REMARK   96  A    between atoms: _233  and  _234
REMARK   97  A    between atoms: _237  and  _239
REMARK   98  A    between atoms: _239  and  _240
REMARK   99  A    between atoms: _239  and  _242
REMARK  100  A    between atoms: _242  and  _243
REMARK  101  A    between atoms: _246  and  _248
REMARK  102  A    between atoms: _248  and  _249
REMARK  103  A    between atoms: _251  and  _253
REMARK  104  A    between atoms: _253  and  _254
REMARK  105  A    between atoms: _253  and  _256
REMARK  106  A    between atoms: _256  and  _257
REMARK  107  A    between atoms: _257  and  _258
REMARK  108  A    between atoms: _258  and  _259
REMARK  109  A    between atoms: _268  and  _270
REMARK  110  A    between atoms: _270  and  _271
REMARK  111  A    between atoms: _270  and  _273
REMARK  112  A    between atoms: _273  and  _274
REMARK  113  A    between atoms: _279  and  _281
REMARK  114  A    between atoms: _281  and  _282
REMARK  115  A    between atoms: _281  and  _284
REMARK  116  A    between atoms: _284  and  _285
REMARK  117  A    between atoms: _285  and  _286
REMARK  118  A    between atoms: _286  and  _287
REMARK  119  A    between atoms: _296  and  _298
REMARK  120  A    between atoms: _298  and  _299
REMARK  121  A    between atoms: _298  and  _301
REMARK  122  A    between atoms: _301  and  _302
REMARK  123  A    between atoms: _305  and  _307
REMARK  124  A    between atoms: _307  and  _308
REMARK  125  A    between atoms: _307  and  _310
REMARK  126  A    between atoms: _310  and  _311
REMARK  127  A    between atoms: _314  and  _316
REMARK  128  A    between atoms: _316  and  _317
REMARK  129  A    between atoms: _316  and  _319
REMARK  130  A    between atoms: _319  and  _320
REMARK  131  A    between atoms: _323  and  _325
REMARK  132  A    between atoms: _325  and  _326
REMARK  133  A    between atoms: _325  and  _328
REMARK  134  A    between atoms: _328  and  _329
REMARK  135  A    between atoms: _332  and  _334
REMARK  136  A    between atoms: _334  and  _335
REMARK  137  A    between atoms: _337  and  _339
REMARK  138  A    between atoms: _339  and  _340
REMARK  139  A    between atoms: _343  and  _345
REMARK  140  A    between atoms: _345  and  _346
REMARK  141  A    between atoms: _345  and  _348
REMARK  142  A    between atoms: _348  and  _349
REMARK  143  A    between atoms: _352  and  _354
REMARK  144  A    between atoms: _354  and  _355
REMARK  145  A    between atoms: _354  and  _357
REMARK  146  A    between atoms: _357  and  _358
REMARK  147  A    between atoms: _361  and  _363
REMARK  148  A    between atoms: _363  and  _364
REMARK  149  A    between atoms: _363  and  _366
REMARK  150  A    between atoms: _366  and  _367
REMARK  151  A    between atoms: _370  and  _372
REMARK  152  A    between atoms: _372  and  _373
REMARK  153  A    between atoms: _372  and  _375
REMARK  154  A    between atoms: _378  and  _380
REMARK  155  A    between atoms: _380  and  _381
REMARK  156  A    between atoms: _380  and  _383
REMARK  157  A    between atoms: _384  and  _385
REMARK  158  A    between atoms: _385  and  _386
REMARK  159  A    between atoms: _386  and  _387
REMARK  160  A    between atoms: _391  and  _393
REMARK  161  A    between atoms: _393  and  _394
REMARK  162  A    between atoms: _393  and  _396
REMARK  163  A    between atoms: _396  and  _397
REMARK  164  A    between atoms: _397  and  _398
REMARK  165  A    between atoms: _400  and  _402
REMARK  166  A    between atoms: _402  and  _403
REMARK  167  A    between atoms: _402  and  _405
REMARK  168  A    between atoms: _405  and  _406
REMARK  169  A    between atoms: _409  and  _411
REMARK  170  A    between atoms: _411  and  _412
REMARK  171  A    between atoms: _414  and  _416
REMARK  172  A    between atoms: _416  and  _417
REMARK  173  A    between atoms: _419  and  _421
REMARK  174  A    between atoms: _421  and  _422
REMARK  175  A    between atoms: _421  and  _424
REMARK  176  A    between atoms: _424  and  _425
REMARK  177  A    between atoms: _428  and  _430
REMARK  178  A    between atoms: _430  and  _431
REMARK  179  A    between atoms: _433  and  _435
REMARK  180  A    between atoms: _435  and  _436
REMARK  181  A    between atoms: _438  and  _440
REMARK  182  A    between atoms: _440  and  _441
REMARK  183  A    between atoms: _440  and  _443
REMARK  184  A    between atoms: _443  and  _444
REMARK  185  A    between atoms: _450  and  _452
REMARK  186  A    between atoms: _452  and  _453
REMARK  187  A    between atoms: _452  and  _455
REMARK  188  A    between atoms: _455  and  _456
REMARK  189  A    between atoms: _459  and  _461
REMARK  190  A    between atoms: _461  and  _462
REMARK  191  A    between atoms: _461  and  _464
REMARK  192  A    between atoms: _467  and  _469
REMARK  193  A    between atoms: _469  and  _470
REMARK  194  A    between atoms: _469  and  _472
REMARK  195  A    between atoms: _472  and  _473
REMARK  196  A    between atoms: _476  and  _478
REMARK  197  A    between atoms: _478  and  _479
REMARK  198  A    between atoms: _478  and  _481
REMARK  199  A    between atoms: _481  and  _482
REMARK  200  A    between atoms: _486  and  _487
REMARK  201  A    between atoms: _492  and  _494
REMARK  202  A    between atoms: _494  and  _495
REMARK  203  A    between atoms: _494  and  _497
REMARK  204  A    between atoms: _500  and  _502
REMARK  205  A    between atoms: _502  and  _503
REMARK  206  A    between atoms: _502  and  _505
REMARK  207  A    between atoms: _505  and  _506
REMARK  208  A    between atoms: _511  and  _513
REMARK  209  A    between atoms: _513  and  _514
REMARK  210  A    between atoms: _513  and  _516
REMARK  211  A    between atoms: _516  and  _517
REMARK  212  A    between atoms: _520  and  _522
REMARK  213  A    between atoms: _522  and  _523
REMARK  214  A    between atoms: _522  and  _525
REMARK  215  A    between atoms: _525  and  _526
REMARK  216  A    between atoms: _529  and  _531
REMARK  217  A    between atoms: _531  and  _532
REMARK  218  A    between atoms: _534  and  _536
REMARK  219  A    between atoms: _536  and  _537
REMARK  220  A    between atoms: _536  and  _539
REMARK  221  A    between atoms: _539  and  _540
REMARK  222  A    between atoms: _540  and  _541
REMARK  223  A    between atoms: _541  and  _542
REMARK  224  A    between atoms: _551  and  _553
REMARK  225  A    between atoms: _553  and  _554
REMARK  226  A    between atoms: _553  and  _556
REMARK  227  A    between atoms: _556  and  _557
REMARK                            x       y       z     vdW  Elec       q    Type
REMARK                         _______ _______ _______ _____ _____    ______ ____
ROOT
ATOM      1  O   HOH     1      11.221  17.369   7.799  0.00  0.00    +0.000 OA
ENDROOT
TORSDOF 0
REMARK  Name = ../refined-set-2016/3a2o/3a2o_pocket.pdb
REMARK  227 active torsions:
REMARK  status: ('A' for Active; 'I' for Inactive)
REMARK    1  A    between atoms: _1  and  _3
REMARK    2  A    between atoms: _3  and  _4
REMARK    3  A    between atoms: _3  and  _6
REMARK    4  A    between atoms: _6  and  _7
REMARK    5  A    between atoms: _7  and  _8
REMARK    6  A    between atoms: _8  and  _9
REMARK    7  A    between atoms: _18  and  _20
REMARK    8  A    between atoms: _20  and  _21
REMARK    9  A    between atoms: _20  and  _23
REMARK   10  A    between atoms: _23  and  _24
REMARK   11  A    between atoms: _27  and  _29
REMARK   12  A    between atoms: _29  and  _30
REMARK   13  A    between atoms: _29  and  _32
REMARK   14  A    between atoms: _32  and  _33
REMARK   15  A    between atoms: _36  and  _38
REMARK   16  A    between atoms: _38  and  _39
REMARK   17  A    between atoms: _38  and  _41
REMARK   18  A    between atoms: _41  and  _42
REMARK   19  A    between atoms: _45  and  _47
REMARK   20  A    between atoms: _47  and  _48
REMARK   21  A    between atoms: _47  and  _50
REMARK   22  A    between atoms: _50  and  _51
REMARK   23  A    between atoms: _54  and  _56
REMARK   24  A    between atoms: _56  and  _57
REMARK   25  A    between atoms: _59  and  _61
REMARK   26  A    between atoms: _61  and  _62
REMARK   27  A    between atoms: _65  and  _67
REMARK   28  A    between atoms: _67  and  _68
REMARK   29  A    between atoms: _67  and  _70
REMARK   30  A    between atoms: _70  and  _71
REMARK   31  A    between atoms: _74  and  _76
REMARK   32  A    between atoms: _76  and  _77
REMARK   33  A    between atoms: _76  and  _79
REMARK   34  A    between atoms: _79  and  _80
REMARK   35  A    between atoms: _83  and  _85
REMARK   36  A    between atoms: _85  and  _86
REMARK   37  A    between atoms: _85  and  _88
REMARK   38  A    between atoms: _88  and  _89
REMARK   39  A    between atoms: _92  and  _94
REMARK   40  A    between atoms: _94  and  _95
REMARK   41  A    between atoms: _94  and  _97
REMARK   42  A    between atoms: _100  and  _102
REMARK   43  A    between atoms: _102  and  _103
REMARK   44  A    between atoms: _102  and  _105
REMARK   45  A    between atoms: _106  and  _107
REMARK   46  A    between atoms: _107  and  _108
REMARK   47  A    between atoms: _108  and  _109
REMARK   48  A    between atoms: _113  and  _115
REMARK   49  A    between atoms: _115  and  _116
REMARK   50  A    between atoms: _115  and  _118
REMARK   51  A    between atoms: _118  and  _119
REMARK   52  A    between atoms: _119  and  _120
REMARK   53  A    between atoms: _122  and  _124
REMARK   54  A    between atoms: _124  and  _125
REMARK   55  A    between atoms: _124  and  _127
REMARK   56  A    between atoms: _127  and  _128
REMARK   57  A    between atoms: _131  and  _133
REMARK   58  A    between atoms: _133  and  _134
REMARK   59  A    between atoms: _136  and  _138
REMARK   60  A    between atoms: _138  and  _139
REMARK   61  A    between atoms: _141  and  _143
REMARK   62  A    between atoms: _143  and  _144
REMARK   63  A    between atoms: _143  and  _146
REMARK   64  A    between atoms: _146  and  _147
REMARK   65  A    between atoms: _150  and  _152
REMARK   66  A    between atoms: _152  and  _153
REMARK   67  A    between atoms: _155  and  _157
REMARK   68  A    between atoms: _157  and  _158
REMARK   69  A    between atoms: _160  and  _162
REMARK   70  A    between atoms: _162  and  _163
REMARK   71  A    between atoms: _162  and  _165
REMARK   72  A    between atoms: _165  and  _166
REMARK   73  A    between atoms: _169  and  _171
REMARK   74  A    between atoms: _171  and  _172
REMARK   75  A    between atoms: _171  and  _174
REMARK   76  A    between atoms: _177  and  _179
REMARK   77  A    between atoms: _179  and  _180
REMARK   78  A    between atoms: _179  and  _182
REMARK   79  A    between atoms: _182  and  _183
REMARK   80  A    between atoms: _187  and  _188
REMARK   81  A    between atoms: _193  and  _195
REMARK   82  A    between atoms: _195  and  _196
REMARK   83  A    between atoms: _195  and  _198
REMARK   84  A    between atoms: _198  and  _199
REMARK   85  A    between atoms: _203  and  _204
REMARK   86  A    between atoms: _209  and  _211
REMARK   87  A    between atoms: _211  and  _212
REMARK   88  A    between atoms: _211  and  _214
REMARK   89  A    between atoms: _217  and  _219
REMARK   90  A    between atoms: _219  and  _220
REMARK   91  A    between atoms: _219  and  _222
REMARK   92  A    between atoms: _222  and  _223
REMARK   93  A    between atoms: _228  and  _230
REMARK   94  A    between atoms: _230  and  _231
REMARK   95  A    between atoms: _230  and  _233
REMARK   96  A    between atoms: _233  and  _234
REMARK   97  A    between atoms: _237  and  _239
REMARK   98  A    between atoms: _239  and  _240
REMARK   99  A    between atoms: _239  and  _242
REMARK  100  A    between atoms: _242  and  _243
REMARK  101  A    between atoms: _246  and  _248
REMARK  102  A    between atoms: _248  and  _249
REMARK  103  A    between atoms: _251  and  _253
REMARK  104  A    between atoms: _253  and  _254
REMARK  105  A    between atoms: _253  and  _256
REMARK  106  A    between atoms: _256  and  _257
REMARK  107  A    between atoms: _257  and  _258
REMARK  108  A    between atoms: _258  and  _259
REMARK  109  A    between atoms: _268  and  _270
REMARK  110  A    between atoms: _270  and  _271
REMARK  111  A    between atoms: _270  and  _273
REMARK  112  A    between atoms: _273  and  _274
REMARK  113  A    between atoms: _279  and  _281
REMARK  114  A    between atoms: _281  and  _282
REMARK  115  A    between atoms: _281  and  _284
REMARK  116  A    between atoms: _284  and  _285
REMARK  117  A    between atoms: _285  and  _286
REMARK  118  A    between atoms: _286  and  _287
REMARK  119  A    between atoms: _296  and  _298
REMARK  120  A    between atoms: _298  and  _299
REMARK  121  A    between atoms: _298  and  _301
REMARK  122  A    between atoms: _301  and  _302
REMARK  123  A    between atoms: _305  and  _307
REMARK  124  A    between atoms: _307  and  _308
REMARK  125  A    between atoms: _307  and  _310
REMARK  126  A    between atoms: _310  and  _311
REMARK  127  A    between atoms: _314  and  _316
REMARK  128  A    between atoms: _316  and  _317
REMARK  129  A    between atoms: _316  and  _319
REMARK  130  A    between atoms: _319  and  _320
REMARK  131  A    between atoms: _323  and  _325
REMARK  132  A    between atoms: _325  and  _326
REMARK  133  A    between atoms: _325  and  _328
REMARK  134  A    between atoms: _328  and  _329
REMARK  135  A    between atoms: _332  and  _334
REMARK  136  A    between atoms: _334  and  _335
REMARK  137  A    between atoms: _337  and  _339
REMARK  138  A    between atoms: _339  and  _340
REMARK  139  A    between atoms: _343  and  _345
REMARK  140  A    between atoms: _345  and  _346
REMARK  141  A    between atoms: _345  and  _348
REMARK  142  A    between atoms: _348  and  _349
REMARK  143  A    between atoms: _352  and  _354
REMARK  144  A    between atoms: _354  and  _355
REMARK  145  A    between atoms: _354  and  _357
REMARK  146  A    between atoms: _357  and  _358
REMARK  147  A    between atoms: _361  and  _363
REMARK  148  A    between atoms: _363  and  _364
REMARK  149  A    between atoms: _363  and  _366
REMARK  150  A    between atoms: _366  and  _367
REMARK  151  A    between atoms: _370  and  _372
REMARK  152  A    between atoms: _372  and  _373
REMARK  153  A    between atoms: _372  and  _375
REMARK  154  A    between atoms: _378  and  _380
REMARK  155  A    between atoms: _380  and  _381
REMARK  156  A    between atoms: _380  and  _383
REMARK  157  A    between atoms: _384  and  _385
REMARK  158  A    between atoms: _385  and  _386
REMARK  159  A    between atoms: _386  and  _387
REMARK  160  A    between atoms: _391  and  _393
REMARK  161  A    between atoms: _393  and  _394
REMARK  162  A    between atoms: _393  and  _396
REMARK  163  A    between atoms: _396  and  _397
REMARK  164  A    between atoms: _397  and  _398
REMARK  165  A    between atoms: _400  and  _402
REMARK  166  A    between atoms: _402  and  _403
REMARK  167  A    between atoms: _402  and  _405
REMARK  168  A    between atoms: _405  and  _406
REMARK  169  A    between atoms: _409  and  _411
REMARK  170  A    between atoms: _411  and  _412
REMARK  171  A    between atoms: _414  and  _416
REMARK  172  A    between atoms: _416  and  _417
REMARK  173  A    between atoms: _419  and  _421
REMARK  174  A    between atoms: _421  and  _422
REMARK  175  A    between atoms: _421  and  _424
REMARK  176  A    between atoms: _424  and  _425
REMARK  177  A    between atoms: _428  and  _430
REMARK  178  A    between atoms: _430  and  _431
REMARK  179  A    between atoms: _433  and  _435
REMARK  180  A    between atoms: _435  and  _436
REMARK  181  A    between atoms: _438  and  _440
REMARK  182  A    between atoms: _440  and  _441
REMARK  183  A    between atoms: _440  and  _443
REMARK  184  A    between atoms: _443  and  _444
REMARK  185  A    between atoms: _450  and  _452
REMARK  186  A    between atoms: _452  and  _453
REMARK  187  A    between atoms: _452  and  _455
REMARK  188  A    between atoms: _455  and  _456
REMARK  189  A    between atoms: _459  and  _461
REMARK  190  A    between atoms: _461  and  _462
REMARK  191  A    between atoms: _461  and  _464
REMARK  192  A    between atoms: _467  and  _469
REMARK  193  A    between atoms: _469  and  _470
REMARK  194  A    between atoms: _469  and  _472
REMARK  195  A    between atoms: _472  and  _473
REMARK  196  A    between atoms: _476  and  _478
REMARK  197  A    between atoms: _478  and  _479
REMARK  198  A    between atoms: _478  and  _481
REMARK  199  A    between atoms: _481  and  _482
REMARK  200  A    between atoms: _486  and  _487
REMARK  201  A    between atoms: _492  and  _494
REMARK  202  A    between atoms: _494  and  _495
REMARK  203  A    between atoms: _494  and  _497
REMARK  204  A    between atoms: _500  and  _502
REMARK  205  A    between atoms: _502  and  _503
REMARK  206  A    between atoms: _502  and  _505
REMARK  207  A    between atoms: _505  and  _506
REMARK  208  A    between atoms: _511  and  _513
REMARK  209  A    between atoms: _513  and  _514
REMARK  210  A    between atoms: _513  and  _516
REMARK  211  A    between atoms: _516  and  _517
REMARK  212  A    between atoms: _520  and  _522
REMARK  213  A    between atoms: _522  and  _523
REMARK  214  A    between atoms: _522  and  _525
REMARK  215  A    between atoms: _525  and  _526
REMARK  216  A    between atoms: _529  and  _531
REMARK  217  A    between atoms: _531  and  _532
REMARK  218  A    between atoms: _534  and  _536
REMARK  219  A    between atoms: _536  and  _537
REMARK  220  A    between atoms: _536  and  _539
REMARK  221  A    between atoms: _539  and  _540
REMARK  222  A    between atoms: _540  and  _541
REMARK  223  A    between atoms: _541  and  _542
REMARK  224  A    between atoms: _551  and  _553
REMARK  225  A    between atoms: _553  and  _554
REMARK  226  A    between atoms: _553  and  _556
REMARK  227  A    between atoms: _556  and  _557
REMARK                            x       y       z     vdW  Elec       q    Type
REMARK                         _______ _______ _______ _____ _____    ______ ____
ROOT
ATOM      1  O   HOH     1      24.792  20.276  18.130  0.00  0.00    +0.000 OA
ENDROOT
TORSDOF 0
REMARK  Name = ../refined-set-2016/3a2o/3a2o_pocket.pdb
REMARK  227 active torsions:
REMARK  status: ('A' for Active; 'I' for Inactive)
REMARK    1  A    between atoms: _1  and  _3
REMARK    2  A    between atoms: _3  and  _4
REMARK    3  A    between atoms: _3  and  _6
REMARK    4  A    between atoms: _6  and  _7
REMARK    5  A    between atoms: _7  and  _8
REMARK    6  A    between atoms: _8  and  _9
REMARK    7  A    between atoms: _18  and  _20
REMARK    8  A    between atoms: _20  and  _21
REMARK    9  A    between atoms: _20  and  _23
REMARK   10  A    between atoms: _23  and  _24
REMARK   11  A    between atoms: _27  and  _29
REMARK   12  A    between atoms: _29  and  _30
REMARK   13  A    between atoms: _29  and  _32
REMARK   14  A    between atoms: _32  and  _33
REMARK   15  A    between atoms: _36  and  _38
REMARK   16  A    between atoms: _38  and  _39
REMARK   17  A    between atoms: _38  and  _41
REMARK   18  A    between atoms: _41  and  _42
REMARK   19  A    between atoms: _45  and  _47
REMARK   20  A    between atoms: _47  and  _48
REMARK   21  A    between atoms: _47  and  _50
REMARK   22  A    between atoms: _50  and  _51
REMARK   23  A    between atoms: _54  and  _56
REMARK   24  A    between atoms: _56  and  _57
REMARK   25  A    between atoms: _59  and  _61
REMARK   26  A    between atoms: _61  and  _62
REMARK   27  A    between atoms: _65  and  _67
REMARK   28  A    between atoms: _67  and  _68
REMARK   29  A    between atoms: _67  and  _70
REMARK   30  A    between atoms: _70  and  _71
REMARK   31  A    between atoms: _74  and  _76
REMARK   32  A    between atoms: _76  and  _77
REMARK   33  A    between atoms: _76  and  _79
REMARK   34  A    between atoms: _79  and  _80
REMARK   35  A    between atoms: _83  and  _85
REMARK   36  A    between atoms: _85  and  _86
REMARK   37  A    between atoms: _85  and  _88
REMARK   38  A    between atoms: _88  and  _89
REMARK   39  A    between atoms: _92  and  _94
REMARK   40  A    between atoms: _94  and  _95
REMARK   41  A    between atoms: _94  and  _97
REMARK   42  A    between atoms: _100  and  _102
REMARK   43  A    between atoms: _102  and  _103
REMARK   44  A    between atoms: _102  and  _105
REMARK   45  A    between atoms: _106  and  _107
REMARK   46  A    between atoms: _107  and  _108
REMARK   47  A    between atoms: _108  and  _109
REMARK   48  A    between atoms: _113  and  _115
REMARK   49  A    between atoms: _115  and  _116
REMARK   50  A    between atoms: _115  and  _118
REMARK   51  A    between atoms: _118  and  _119
REMARK   52  A    between atoms: _119  and  _120
REMARK   53  A    between atoms: _122  and  _124
REMARK   54  A    between atoms: _124  and  _125
REMARK   55  A    between atoms: _124  and  _127
REMARK   56  A    between atoms: _127  and  _128
REMARK   57  A    between atoms: _131  and  _133
REMARK   58  A    between atoms: _133  and  _134
REMARK   59  A    between atoms: _136  and  _138
REMARK   60  A    between atoms: _138  and  _139
REMARK   61  A    between atoms: _141  and  _143
REMARK   62  A    between atoms: _143  and  _144
REMARK   63  A    between atoms: _143  and  _146
REMARK   64  A    between atoms: _146  and  _147
REMARK   65  A    between atoms: _150  and  _152
REMARK   66  A    between atoms: _152  and  _153
REMARK   67  A    between atoms: _155  and  _157
REMARK   68  A    between atoms: _157  and  _158
REMARK   69  A    between atoms: _160  and  _162
REMARK   70  A    between atoms: _162  and  _163
REMARK   71  A    between atoms: _162  and  _165
REMARK   72  A    between atoms: _165  and  _166
REMARK   73  A    between atoms: _169  and  _171
REMARK   74  A    between atoms: _171  and  _172
REMARK   75  A    between atoms: _171  and  _174
REMARK   76  A    between atoms: _177  and  _179
REMARK   77  A    between atoms: _179  and  _180
REMARK   78  A    between atoms: _179  and  _182
REMARK   79  A    between atoms: _182  and  _183
REMARK   80  A    between atoms: _187  and  _188
REMARK   81  A    between atoms: _193  and  _195
REMARK   82  A    between atoms: _195  and  _196
REMARK   83  A    between atoms: _195  and  _198
REMARK   84  A    between atoms: _198  and  _199
REMARK   85  A    between atoms: _203  and  _204
REMARK   86  A    between atoms: _209  and  _211
REMARK   87  A    between atoms: _211  and  _212
REMARK   88  A    between atoms: _211  and  _214
REMARK   89  A    between atoms: _217  and  _219
REMARK   90  A    between atoms: _219  and  _220
REMARK   91  A    between atoms: _219  and  _222
REMARK   92  A    between atoms: _222  and  _223
REMARK   93  A    between atoms: _228  and  _230
REMARK   94  A    between atoms: _230  and  _231
REMARK   95  A    between atoms: _230  and  _233
REMARK   96  A    between atoms: _233  and  _234
REMARK   97  A    between atoms: _237  and  _239
REMARK   98  A    between atoms: _239  and  _240
REMARK   99  A    between atoms: _239  and  _242
REMARK  100  A    between atoms: _242  and  _243
REMARK  101  A    between atoms: _246  and  _248
REMARK  102  A    between atoms: _248  and  _249
REMARK  103  A    between atoms: _251  and  _253
REMARK  104  A    between atoms: _253  and  _254
REMARK  105  A    between atoms: _253  and  _256
REMARK  106  A    between atoms: _256  and  _257
REMARK  107  A    between atoms: _257  and  _258
REMARK  108  A    between atoms: _258  and  _259
REMARK  109  A    between atoms: _268  and  _270
REMARK  110  A    between atoms: _270  and  _271
REMARK  111  A    between atoms: _270  and  _273
REMARK  112  A    between atoms: _273  and  _274
REMARK  113  A    between atoms: _279  and  _281
REMARK  114  A    between atoms: _281  and  _282
REMARK  115  A    between atoms: _281  and  _284
REMARK  116  A    between atoms: _284  and  _285
REMARK  117  A    between atoms: _285  and  _286
REMARK  118  A    between atoms: _286  and  _287
REMARK  119  A    between atoms: _296  and  _298
REMARK  120  A    between atoms: _298  and  _299
REMARK  121  A    between atoms: _298  and  _301
REMARK  122  A    between atoms: _301  and  _302
REMARK  123  A    between atoms: _305  and  _307
REMARK  124  A    between atoms: _307  and  _308
REMARK  125  A    between atoms: _307  and  _310
REMARK  126  A    between atoms: _310  and  _311
REMARK  127  A    between atoms: _314  and  _316
REMARK  128  A    between atoms: _316  and  _317
REMARK  129  A    between atoms: _316  and  _319
REMARK  130  A    between atoms: _319  and  _320
REMARK  131  A    between atoms: _323  and  _325
REMARK  132  A    between atoms: _325  and  _326
REMARK  133  A    between atoms: _325  and  _328
REMARK  134  A    between atoms: _328  and  _329
REMARK  135  A    between atoms: _332  and  _334
REMARK  136  A    between atoms: _334  and  _335
REMARK  137  A    between atoms: _337  and  _339
REMARK  138  A    between atoms: _339  and  _340
REMARK  139  A    between atoms: _343  and  _345
REMARK  140  A    between atoms: _345  and  _346
REMARK  141  A    between atoms: _345  and  _348
REMARK  142  A    between atoms: _348  and  _349
REMARK  143  A    between atoms: _352  and  _354
REMARK  144  A    between atoms: _354  and  _355
REMARK  145  A    between atoms: _354  and  _357
REMARK  146  A    between atoms: _357  and  _358
REMARK  147  A    between atoms: _361  and  _363
REMARK  148  A    between atoms: _363  and  _364
REMARK  149  A    between atoms: _363  and  _366
REMARK  150  A    between atoms: _366  and  _367
REMARK  151  A    between atoms: _370  and  _372
REMARK  152  A    between atoms: _372  and  _373
REMARK  153  A    between atoms: _372  and  _375
REMARK  154  A    between atoms: _378  and  _380
REMARK  155  A    between atoms: _380  and  _381
REMARK  156  A    between atoms: _380  and  _383
REMARK  157  A    between atoms: _384  and  _385
REMARK  158  A    between atoms: _385  and  _386
REMARK  159  A    between atoms: _386  and  _387
REMARK  160  A    between atoms: _391  and  _393
REMARK  161  A    between atoms: _393  and  _394
REMARK  162  A    between atoms: _393  and  _396
REMARK  163  A    between atoms: _396  and  _397
REMARK  164  A    between atoms: _397  and  _398
REMARK  165  A    between atoms: _400  and  _402
REMARK  166  A    between atoms: _402  and  _403
REMARK  167  A    between atoms: _402  and  _405
REMARK  168  A    between atoms: _405  and  _406
REMARK  169  A    between atoms: _409  and  _411
REMARK  170  A    between atoms: _411  and  _412
REMARK  171  A    between atoms: _414  and  _416
REMARK  172  A    between atoms: _416  and  _417
REMARK  173  A    between atoms: _419  and  _421
REMARK  174  A    between atoms: _421  and  _422
REMARK  175  A    between atoms: _421  and  _424
REMARK  176  A    between atoms: _424  and  _425
REMARK  177  A    between atoms: _428  and  _430
REMARK  178  A    between atoms: _430  and  _431
REMARK  179  A    between atoms: _433  and  _435
REMARK  180  A    between atoms: _435  and  _436
REMARK  181  A    between atoms: _438  and  _440
REMARK  182  A    between atoms: _440  and  _441
REMARK  183  A    between atoms: _440  and  _443
REMARK  184  A    between atoms: _443  and  _444
REMARK  185  A    between atoms: _450  and  _452
REMARK  186  A    between atoms: _452  and  _453
REMARK  187  A    between atoms: _452  and  _455
REMARK  188  A    between atoms: _455  and  _456
REMARK  189  A    between atoms: _459  and  _461
REMARK  190  A    between atoms: _461  and  _462
REMARK  191  A    between atoms: _461  and  _464
REMARK  192  A    between atoms: _467  and  _469
REMARK  193  A    between atoms: _469  and  _470
REMARK  194  A    between atoms: _469  and  _472
REMARK  195  A    between atoms: _472  and  _473
REMARK  196  A    between atoms: _476  and  _478
REMARK  197  A    between atoms: _478  and  _479
REMARK  198  A    between atoms: _478  and  _481
REMARK  199  A    between atoms: _481  and  _482
REMARK  200  A    between atoms: _486  and  _487
REMARK  201  A    between atoms: _492  and  _494
REMARK  202  A    between atoms: _494  and  _495
REMARK  203  A    between atoms: _494  and  _497
REMARK  204  A    between atoms: _500  and  _502
REMARK  205  A    between atoms: _502  and  _503
REMARK  206  A    between atoms: _502  and  _505
REMARK  207  A    between atoms: _505  and  _506
REMARK  208  A    between atoms: _511  and  _513
REMARK  209  A    between atoms: _513  and  _514
REMARK  210  A    between atoms: _513  and  _516
REMARK  211  A    between atoms: _516  and  _517
REMARK  212  A    between atoms: _520  and  _522
REMARK  213  A    between atoms: _522  and  _523
REMARK  214  A    between atoms: _522  and  _525
REMARK  215  A    between atoms: _525  and  _526
REMARK  216  A    between atoms: _529  and  _531
REMARK  217  A    between atoms: _531  and  _532
REMARK  218  A    between atoms: _534  and  _536
REMARK  219  A    between atoms: _536  and  _537
REMARK  220  A    between atoms: _536  and  _539
REMARK  221  A    between atoms: _539  and  _540
REMARK  222  A    between atoms: _540  and  _541
REMARK  223  A    between atoms: _541  and  _542
REMARK  224  A    between atoms: _551  and  _553
REMARK  225  A    between atoms: _553  and  _554
REMARK  226  A    between atoms: _553  and  _556
REMARK  227  A    between atoms: _556  and  _557
REMARK                            x       y       z     vdW  Elec       q    Type
REMARK                         _______ _______ _______ _____ _____    ______ ____
ROOT
ATOM      1  O   HOH     1      21.997  26.884  23.012  0.00  0.00    +0.000 OA
ENDROOT
TORSDOF 0
REMARK  Name = ../refined-set-2016/3a2o/3a2o_pocket.pdb
REMARK  227 active torsions:
REMARK  status: ('A' for Active; 'I' for Inactive)
REMARK    1  A    between atoms: _1  and  _3
REMARK    2  A    between atoms: _3  and  _4
REMARK    3  A    between atoms: _3  and  _6
REMARK    4  A    between atoms: _6  and  _7
REMARK    5  A    between atoms: _7  and  _8
REMARK    6  A    between atoms: _8  and  _9
REMARK    7  A    between atoms: _18  and  _20
REMARK    8  A    between atoms: _20  and  _21
REMARK    9  A    between atoms: _20  and  _23
REMARK   10  A    between atoms: _23  and  _24
REMARK   11  A    between atoms: _27  and  _29
REMARK   12  A    between atoms: _29  and  _30
REMARK   13  A    between atoms: _29  and  _32
REMARK   14  A    between atoms: _32  and  _33
REMARK   15  A    between atoms: _36  and  _38
REMARK   16  A    between atoms: _38  and  _39
REMARK   17  A    between atoms: _38  and  _41
REMARK   18  A    between atoms: _41  and  _42
REMARK   19  A    between atoms: _45  and  _47
REMARK   20  A    between atoms: _47  and  _48
REMARK   21  A    between atoms: _47  and  _50
REMARK   22  A    between atoms: _50  and  _51
REMARK   23  A    between atoms: _54  and  _56
REMARK   24  A    between atoms: _56  and  _57
REMARK   25  A    between atoms: _59  and  _61
REMARK   26  A    between atoms: _61  and  _62
REMARK   27  A    between atoms: _65  and  _67
REMARK   28  A    between atoms: _67  and  _68
REMARK   29  A    between atoms: _67  and  _70
REMARK   30  A    between atoms: _70  and  _71
REMARK   31  A    between atoms: _74  and  _76
REMARK   32  A    between atoms: _76  and  _77
REMARK   33  A    between atoms: _76  and  _79
REMARK   34  A    between atoms: _79  and  _80
REMARK   35  A    between atoms: _83  and  _85
REMARK   36  A    between atoms: _85  and  _86
REMARK   37  A    between atoms: _85  and  _88
REMARK   38  A    between atoms: _88  and  _89
REMARK   39  A    between atoms: _92  and  _94
REMARK   40  A    between atoms: _94  and  _95
REMARK   41  A    between atoms: _94  and  _97
REMARK   42  A    between atoms: _100  and  _102
REMARK   43  A    between atoms: _102  and  _103
REMARK   44  A    between atoms: _102  and  _105
REMARK   45  A    between atoms: _106  and  _107
REMARK   46  A    between atoms: _107  and  _108
REMARK   47  A    between atoms: _108  and  _109
REMARK   48  A    between atoms: _113  and  _115
REMARK   49  A    between atoms: _115  and  _116
REMARK   50  A    between atoms: _115  and  _118
REMARK   51  A    between atoms: _118  and  _119
REMARK   52  A    between atoms: _119  and  _120
REMARK   53  A    between atoms: _122  and  _124
REMARK   54  A    between atoms: _124  and  _125
REMARK   55  A    between atoms: _124  and  _127
REMARK   56  A    between atoms: _127  and  _128
REMARK   57  A    between atoms: _131  and  _133
REMARK   58  A    between atoms: _133  and  _134
REMARK   59  A    between atoms: _136  and  _138
REMARK   60  A    between atoms: _138  and  _139
REMARK   61  A    between atoms: _141  and  _143
REMARK   62  A    between atoms: _143  and  _144
REMARK   63  A    between atoms: _143  and  _146
REMARK   64  A    between atoms: _146  and  _147
REMARK   65  A    between atoms: _150  and  _152
REMARK   66  A    between atoms: _152  and  _153
REMARK   67  A    between atoms: _155  and  _157
REMARK   68  A    between atoms: _157  and  _158
REMARK   69  A    between atoms: _160  and  _162
REMARK   70  A    between atoms: _162  and  _163
REMARK   71  A    between atoms: _162  and  _165
REMARK   72  A    between atoms: _165  and  _166
REMARK   73  A    between atoms: _169  and  _171
REMARK   74  A    between atoms: _171  and  _172
REMARK   75  A    between atoms: _171  and  _174
REMARK   76  A    between atoms: _177  and  _179
REMARK   77  A    between atoms: _179  and  _180
REMARK   78  A    between atoms: _179  and  _182
REMARK   79  A    between atoms: _182  and  _183
REMARK   80  A    between atoms: _187  and  _188
REMARK   81  A    between atoms: _193  and  _195
REMARK   82  A    between atoms: _195  and  _196
REMARK   83  A    between atoms: _195  and  _198
REMARK   84  A    between atoms: _198  and  _199
REMARK   85  A    between atoms: _203  and  _204
REMARK   86  A    between atoms: _209  and  _211
REMARK   87  A    between atoms: _211  and  _212
REMARK   88  A    between atoms: _211  and  _214
REMARK   89  A    between atoms: _217  and  _219
REMARK   90  A    between atoms: _219  and  _220
REMARK   91  A    between atoms: _219  and  _222
REMARK   92  A    between atoms: _222  and  _223
REMARK   93  A    between atoms: _228  and  _230
REMARK   94  A    between atoms: _230  and  _231
REMARK   95  A    between atoms: _230  and  _233
REMARK   96  A    between atoms: _233  and  _234
REMARK   97  A    between atoms: _237  and  _239
REMARK   98  A    between atoms: _239  and  _240
REMARK   99  A    between atoms: _239  and  _242
REMARK  100  A    between atoms: _242  and  _243
REMARK  101  A    between atoms: _246  and  _248
REMARK  102  A    between atoms: _248  and  _249
REMARK  103  A    between atoms: _251  and  _253
REMARK  104  A    between atoms: _253  and  _254
REMARK  105  A    between atoms: _253  and  _256
REMARK  106  A    between atoms: _256  and  _257
REMARK  107  A    between atoms: _257  and  _258
REMARK  108  A    between atoms: _258  and  _259
REMARK  109  A    between atoms: _268  and  _270
REMARK  110  A    between atoms: _270  and  _271
REMARK  111  A    between atoms: _270  and  _273
REMARK  112  A    between atoms: _273  and  _274
REMARK  113  A    between atoms: _279  and  _281
REMARK  114  A    between atoms: _281  and  _282
REMARK  115  A    between atoms: _281  and  _284
REMARK  116  A    between atoms: _284  and  _285
REMARK  117  A    between atoms: _285  and  _286
REMARK  118  A    between atoms: _286  and  _287
REMARK  119  A    between atoms: _296  and  _298
REMARK  120  A    between atoms: _298  and  _299
REMARK  121  A    between atoms: _298  and  _301
REMARK  122  A    between atoms: _301  and  _302
REMARK  123  A    between atoms: _305  and  _307
REMARK  124  A    between atoms: _307  and  _308
REMARK  125  A    between atoms: _307  and  _310
REMARK  126  A    between atoms: _310  and  _311
REMARK  127  A    between atoms: _314  and  _316
REMARK  128  A    between atoms: _316  and  _317
REMARK  129  A    between atoms: _316  and  _319
REMARK  130  A    between atoms: _319  and  _320
REMARK  131  A    between atoms: _323  and  _325
REMARK  132  A    between atoms: _325  and  _326
REMARK  133  A    between atoms: _325  and  _328
REMARK  134  A    between atoms: _328  and  _329
REMARK  135  A    between atoms: _332  and  _334
REMARK  136  A    between atoms: _334  and  _335
REMARK  137  A    between atoms: _337  and  _339
REMARK  138  A    between atoms: _339  and  _340
REMARK  139  A    between atoms: _343  and  _345
REMARK  140  A    between atoms: _345  and  _346
REMARK  141  A    between atoms: _345  and  _348
REMARK  142  A    between atoms: _348  and  _349
REMARK  143  A    between atoms: _352  and  _354
REMARK  144  A    between atoms: _354  and  _355
REMARK  145  A    between atoms: _354  and  _357
REMARK  146  A    between atoms: _357  and  _358
REMARK  147  A    between atoms: _361  and  _363
REMARK  148  A    between atoms: _363  and  _364
REMARK  149  A    between atoms: _363  and  _366
REMARK  150  A    between atoms: _366  and  _367
REMARK  151  A    between atoms: _370  and  _372
REMARK  152  A    between atoms: _372  and  _373
REMARK  153  A    between atoms: _372  and  _375
REMARK  154  A    between atoms: _378  and  _380
REMARK  155  A    between atoms: _380  and  _381
REMARK  156  A    between atoms: _380  and  _383
REMARK  157  A    between atoms: _384  and  _385
REMARK  158  A    between atoms: _385  and  _386
REMARK  159  A    between atoms: _386  and  _387
REMARK  160  A    between atoms: _391  and  _393
REMARK  161  A    between atoms: _393  and  _394
REMARK  162  A    between atoms: _393  and  _396
REMARK  163  A    between atoms: _396  and  _397
REMARK  164  A    between atoms: _397  and  _398
REMARK  165  A    between atoms: _400  and  _402
REMARK  166  A    between atoms: _402  and  _403
REMARK  167  A    between atoms: _402  and  _405
REMARK  168  A    between atoms: _405  and  _406
REMARK  169  A    between atoms: _409  and  _411
REMARK  170  A    between atoms: _411  and  _412
REMARK  171  A    between atoms: _414  and  _416
REMARK  172  A    between atoms: _416  and  _417
REMARK  173  A    between atoms: _419  and  _421
REMARK  174  A    between atoms: _421  and  _422
REMARK  175  A    between atoms: _421  and  _424
REMARK  176  A    between atoms: _424  and  _425
REMARK  177  A    between atoms: _428  and  _430
REMARK  178  A    between atoms: _430  and  _431
REMARK  179  A    between atoms: _433  and  _435
REMARK  180  A    between atoms: _435  and  _436
REMARK  181  A    between atoms: _438  and  _440
REMARK  182  A    between atoms: _440  and  _441
REMARK  183  A    between atoms: _440  and  _443
REMARK  184  A    between atoms: _443  and  _444
REMARK  185  A    between atoms: _450  and  _452
REMARK  186  A    between atoms: _452  and  _453
REMARK  187  A    between atoms: _452  and  _455
REMARK  188  A    between atoms: _455  and  _456
REMARK  189  A    between atoms: _459  and  _461
REMARK  190  A    between atoms: _461  and  _462
REMARK  191  A    between atoms: _461  and  _464
REMARK  192  A    between atoms: _467  and  _469
REMARK  193  A    between atoms: _469  and  _470
REMARK  194  A    between atoms: _469  and  _472
REMARK  195  A    between atoms: _472  and  _473
REMARK  196  A    between atoms: _476  and  _478
REMARK  197  A    between atoms: _478  and  _479
REMARK  198  A    between atoms: _478  and  _481
REMARK  199  A    between atoms: _481  and  _482
REMARK  200  A    between atoms: _486  and  _487
REMARK  201  A    between atoms: _492  and  _494
REMARK  202  A    between atoms: _494  and  _495
REMARK  203  A    between atoms: _494  and  _497
REMARK  204  A    between atoms: _500  and  _502
REMARK  205  A    between atoms: _502  and  _503
REMARK  206  A    between atoms: _502  and  _505
REMARK  207  A    between atoms: _505  and  _506
REMARK  208  A    between atoms: _511  and  _513
REMARK  209  A    between atoms: _513  and  _514
REMARK  210  A    between atoms: _513  and  _516
REMARK  211  A    between atoms: _516  and  _517
REMARK  212  A    between atoms: _520  and  _522
REMARK  213  A    between atoms: _522  and  _523
REMARK  214  A    between atoms: _522  and  _525
REMARK  215  A    between atoms: _525  and  _526
REMARK  216  A    between atoms: _529  and  _531
REMARK  217  A    between atoms: _531  and  _532
REMARK  218  A    between atoms: _534  and  _536
REMARK  219  A    between atoms: _536  and  _537
REMARK  220  A    between atoms: _536  and  _539
REMARK  221  A    between atoms: _539  and  _540
REMARK  222  A    between atoms: _540  and  _541
REMARK  223  A    between atoms: _541  and  _542
REMARK  224  A    between atoms: _551  and  _553
REMARK  225  A    between atoms: _553  and  _554
REMARK  226  A    between atoms: _553  and  _556
REMARK  227  A    between atoms: _556  and  _557
REMARK                            x       y       z     vdW  Elec       q    Type
REMARK                         _______ _______ _______ _____ _____    ______ ____
ROOT
ATOM      1  O   HOH     1      24.124  26.007  21.969  0.00  0.00    +0.000 OA
ENDROOT
TORSDOF 0
REMARK  Name = ../refined-set-2016/3a2o/3a2o_pocket.pdb
REMARK  227 active torsions:
REMARK  status: ('A' for Active; 'I' for Inactive)
REMARK    1  A    between atoms: _1  and  _3
REMARK    2  A    between atoms: _3  and  _4
REMARK    3  A    between atoms: _3  and  _6
REMARK    4  A    between atoms: _6  and  _7
REMARK    5  A    between atoms: _7  and  _8
REMARK    6  A    between atoms: _8  and  _9
REMARK    7  A    between atoms: _18  and  _20
REMARK    8  A    between atoms: _20  and  _21
REMARK    9  A    between atoms: _20  and  _23
REMARK   10  A    between atoms: _23  and  _24
REMARK   11  A    between atoms: _27  and  _29
REMARK   12  A    between atoms: _29  and  _30
REMARK   13  A    between atoms: _29  and  _32
REMARK   14  A    between atoms: _32  and  _33
REMARK   15  A    between atoms: _36  and  _38
REMARK   16  A    between atoms: _38  and  _39
REMARK   17  A    between atoms: _38  and  _41
REMARK   18  A    between atoms: _41  and  _42
REMARK   19  A    between atoms: _45  and  _47
REMARK   20  A    between atoms: _47  and  _48
REMARK   21  A    between atoms: _47  and  _50
REMARK   22  A    between atoms: _50  and  _51
REMARK   23  A    between atoms: _54  and  _56
REMARK   24  A    between atoms: _56  and  _57
REMARK   25  A    between atoms: _59  and  _61
REMARK   26  A    between atoms: _61  and  _62
REMARK   27  A    between atoms: _65  and  _67
REMARK   28  A    between atoms: _67  and  _68
REMARK   29  A    between atoms: _67  and  _70
REMARK   30  A    between atoms: _70  and  _71
REMARK   31  A    between atoms: _74  and  _76
REMARK   32  A    between atoms: _76  and  _77
REMARK   33  A    between atoms: _76  and  _79
REMARK   34  A    between atoms: _79  and  _80
REMARK   35  A    between atoms: _83  and  _85
REMARK   36  A    between atoms: _85  and  _86
REMARK   37  A    between atoms: _85  and  _88
REMARK   38  A    between atoms: _88  and  _89
REMARK   39  A    between atoms: _92  and  _94
REMARK   40  A    between atoms: _94  and  _95
REMARK   41  A    between atoms: _94  and  _97
REMARK   42  A    between atoms: _100  and  _102
REMARK   43  A    between atoms: _102  and  _103
REMARK   44  A    between atoms: _102  and  _105
REMARK   45  A    between atoms: _106  and  _107
REMARK   46  A    between atoms: _107  and  _108
REMARK   47  A    between atoms: _108  and  _109
REMARK   48  A    between atoms: _113  and  _115
REMARK   49  A    between atoms: _115  and  _116
REMARK   50  A    between atoms: _115  and  _118
REMARK   51  A    between atoms: _118  and  _119
REMARK   52  A    between atoms: _119  and  _120
REMARK   53  A    between atoms: _122  and  _124
REMARK   54  A    between atoms: _124  and  _125
REMARK   55  A    between atoms: _124  and  _127
REMARK   56  A    between atoms: _127  and  _128
REMARK   57  A    between atoms: _131  and  _133
REMARK   58  A    between atoms: _133  and  _134
REMARK   59  A    between atoms: _136  and  _138
REMARK   60  A    between atoms: _138  and  _139
REMARK   61  A    between atoms: _141  and  _143
REMARK   62  A    between atoms: _143  and  _144
REMARK   63  A    between atoms: _143  and  _146
REMARK   64  A    between atoms: _146  and  _147
REMARK   65  A    between atoms: _150  and  _152
REMARK   66  A    between atoms: _152  and  _153
REMARK   67  A    between atoms: _155  and  _157
REMARK   68  A    between atoms: _157  and  _158
REMARK   69  A    between atoms: _160  and  _162
REMARK   70  A    between atoms: _162  and  _163
REMARK   71  A    between atoms: _162  and  _165
REMARK   72  A    between atoms: _165  and  _166
REMARK   73  A    between atoms: _169  and  _171
REMARK   74  A    between atoms: _171  and  _172
REMARK   75  A    between atoms: _171  and  _174
REMARK   76  A    between atoms: _177  and  _179
REMARK   77  A    between atoms: _179  and  _180
REMARK   78  A    between atoms: _179  and  _182
REMARK   79  A    between atoms: _182  and  _183
REMARK   80  A    between atoms: _187  and  _188
REMARK   81  A    between atoms: _193  and  _195
REMARK   82  A    between atoms: _195  and  _196
REMARK   83  A    between atoms: _195  and  _198
REMARK   84  A    between atoms: _198  and  _199
REMARK   85  A    between atoms: _203  and  _204
REMARK   86  A    between atoms: _209  and  _211
REMARK   87  A    between atoms: _211  and  _212
REMARK   88  A    between atoms: _211  and  _214
REMARK   89  A    between atoms: _217  and  _219
REMARK   90  A    between atoms: _219  and  _220
REMARK   91  A    between atoms: _219  and  _222
REMARK   92  A    between atoms: _222  and  _223
REMARK   93  A    between atoms: _228  and  _230
REMARK   94  A    between atoms: _230  and  _231
REMARK   95  A    between atoms: _230  and  _233
REMARK   96  A    between atoms: _233  and  _234
REMARK   97  A    between atoms: _237  and  _239
REMARK   98  A    between atoms: _239  and  _240
REMARK   99  A    between atoms: _239  and  _242
REMARK  100  A    between atoms: _242  and  _243
REMARK  101  A    between atoms: _246  and  _248
REMARK  102  A    between atoms: _248  and  _249
REMARK  103  A    between atoms: _251  and  _253
REMARK  104  A    between atoms: _253  and  _254
REMARK  105  A    between atoms: _253  and  _256
REMARK  106  A    between atoms: _256  and  _257
REMARK  107  A    between atoms: _257  and  _258
REMARK  108  A    between atoms: _258  and  _259
REMARK  109  A    between atoms: _268  and  _270
REMARK  110  A    between atoms: _270  and  _271
REMARK  111  A    between atoms: _270  and  _273
REMARK  112  A    between atoms: _273  and  _274
REMARK  113  A    between atoms: _279  and  _281
REMARK  114  A    between atoms: _281  and  _282
REMARK  115  A    between atoms: _281  and  _284
REMARK  116  A    between atoms: _284  and  _285
REMARK  117  A    between atoms: _285  and  _286
REMARK  118  A    between atoms: _286  and  _287
REMARK  119  A    between atoms: _296  and  _298
REMARK  120  A    between atoms: _298  and  _299
REMARK  121  A    between atoms: _298  and  _301
REMARK  122  A    between atoms: _301  and  _302
REMARK  123  A    between atoms: _305  and  _307
REMARK  124  A    between atoms: _307  and  _308
REMARK  125  A    between atoms: _307  and  _310
REMARK  126  A    between atoms: _310  and  _311
REMARK  127  A    between atoms: _314  and  _316
REMARK  128  A    between atoms: _316  and  _317
REMARK  129  A    between atoms: _316  and  _319
REMARK  130  A    between atoms: _319  and  _320
REMARK  131  A    between atoms: _323  and  _325
REMARK  132  A    between atoms: _325  and  _326
REMARK  133  A    between atoms: _325  and  _328
REMARK  134  A    between atoms: _328  and  _329
REMARK  135  A    between atoms: _332  and  _334
REMARK  136  A    between atoms: _334  and  _335
REMARK  137  A    between atoms: _337  and  _339
REMARK  138  A    between atoms: _339  and  _340
REMARK  139  A    between atoms: _343  and  _345
REMARK  140  A    between atoms: _345  and  _346
REMARK  141  A    between atoms: _345  and  _348
REMARK  142  A    between atoms: _348  and  _349
REMARK  143  A    between atoms: _352  and  _354
REMARK  144  A    between atoms: _354  and  _355
REMARK  145  A    between atoms: _354  and  _357
REMARK  146  A    between atoms: _357  and  _358
REMARK  147  A    between atoms: _361  and  _363
REMARK  148  A    between atoms: _363  and  _364
REMARK  149  A    between atoms: _363  and  _366
REMARK  150  A    between atoms: _366  and  _367
REMARK  151  A    between atoms: _370  and  _372
REMARK  152  A    between atoms: _372  and  _373
REMARK  153  A    between atoms: _372  and  _375
REMARK  154  A    between atoms: _378  and  _380
REMARK  155  A    between atoms: _380  and  _381
REMARK  156  A    between atoms: _380  and  _383
REMARK  157  A    between atoms: _384  and  _385
REMARK  158  A    between atoms: _385  and  _386
REMARK  159  A    between atoms: _386  and  _387
REMARK  160  A    between atoms: _391  and  _393
REMARK  161  A    between atoms: _393  and  _394
REMARK  162  A    between atoms: _393  and  _396
REMARK  163  A    between atoms: _396  and  _397
REMARK  164  A    between atoms: _397  and  _398
REMARK  165  A    between atoms: _400  and  _402
REMARK  166  A    between atoms: _402  and  _403
REMARK  167  A    between atoms: _402  and  _405
REMARK  168  A    between atoms: _405  and  _406
REMARK  169  A    between atoms: _409  and  _411
REMARK  170  A    between atoms: _411  and  _412
REMARK  171  A    between atoms: _414  and  _416
REMARK  172  A    between atoms: _416  and  _417
REMARK  173  A    between atoms: _419  and  _421
REMARK  174  A    between atoms: _421  and  _422
REMARK  175  A    between atoms: _421  and  _424
REMARK  176  A    between atoms: _424  and  _425
REMARK  177  A    between atoms: _428  and  _430
REMARK  178  A    between atoms: _430  and  _431
REMARK  179  A    between atoms: _433  and  _435
REMARK  180  A    between atoms: _435  and  _436
REMARK  181  A    between atoms: _438  and  _440
REMARK  182  A    between atoms: _440  and  _441
REMARK  183  A    between atoms: _440  and  _443
REMARK  184  A    between atoms: _443  and  _444
REMARK  185  A    between atoms: _450  and  _452
REMARK  186  A    between atoms: _452  and  _453
REMARK  187  A    between atoms: _452  and  _455
REMARK  188  A    between atoms: _455  and  _456
REMARK  189  A    between atoms: _459  and  _461
REMARK  190  A    between atoms: _461  and  _462
REMARK  191  A    between atoms: _461  and  _464
REMARK  192  A    between atoms: _467  and  _469
REMARK  193  A    between atoms: _469  and  _470
REMARK  194  A    between atoms: _469  and  _472
REMARK  195  A    between atoms: _472  and  _473
REMARK  196  A    between atoms: _476  and  _478
REMARK  197  A    between atoms: _478  and  _479
REMARK  198  A    between atoms: _478  and  _481
REMARK  199  A    between atoms: _481  and  _482
REMARK  200  A    between atoms: _486  and  _487
REMARK  201  A    between atoms: _492  and  _494
REMARK  202  A    between atoms: _494  and  _495
REMARK  203  A    between atoms: _494  and  _497
REMARK  204  A    between atoms: _500  and  _502
REMARK  205  A    between atoms: _502  and  _503
REMARK  206  A    between atoms: _502  and  _505
REMARK  207  A    between atoms: _505  and  _506
REMARK  208  A    between atoms: _511  and  _513
REMARK  209  A    between atoms: _513  and  _514
REMARK  210  A    between atoms: _513  and  _516
REMARK  211  A    between atoms: _516  and  _517
REMARK  212  A    between atoms: _520  and  _522
REMARK  213  A    between atoms: _522  and  _523
REMARK  214  A    between atoms: _522  and  _525
REMARK  215  A    between atoms: _525  and  _526
REMARK  216  A    between atoms: _529  and  _531
REMARK  217  A    between atoms: _531  and  _532
REMARK  218  A    between atoms: _534  and  _536
REMARK  219  A    between atoms: _536  and  _537
REMARK  220  A    between atoms: _536  and  _539
REMARK  221  A    between atoms: _539  and  _540
REMARK  222  A    between atoms: _540  and  _541
REMARK  223  A    between atoms: _541  and  _542
REMARK  224  A    between atoms: _551  and  _553
REMARK  225  A    between atoms: _553  and  _554
REMARK  226  A    between atoms: _553  and  _556
REMARK  227  A    between atoms: _556  and  _557
REMARK                            x       y       z     vdW  Elec       q    Type
REMARK                         _______ _______ _______ _____ _____    ______ ____
ROOT
ATOM      1  O   HOH     1      25.342  25.863  15.815  0.00  0.00    +0.000 OA
ENDROOT
TORSDOF 0
REMARK  Name = ../refined-set-2016/3a2o/3a2o_pocket.pdb
REMARK  227 active torsions:
REMARK  status: ('A' for Active; 'I' for Inactive)
REMARK    1  A    between atoms: _1  and  _3
REMARK    2  A    between atoms: _3  and  _4
REMARK    3  A    between atoms: _3  and  _6
REMARK    4  A    between atoms: _6  and  _7
REMARK    5  A    between atoms: _7  and  _8
REMARK    6  A    between atoms: _8  and  _9
REMARK    7  A    between atoms: _18  and  _20
REMARK    8  A    between atoms: _20  and  _21
REMARK    9  A    between atoms: _20  and  _23
REMARK   10  A    between atoms: _23  and  _24
REMARK   11  A    between atoms: _27  and  _29
REMARK   12  A    between atoms: _29  and  _30
REMARK   13  A    between atoms: _29  and  _32
REMARK   14  A    between atoms: _32  and  _33
REMARK   15  A    between atoms: _36  and  _38
REMARK   16  A    between atoms: _38  and  _39
REMARK   17  A    between atoms: _38  and  _41
REMARK   18  A    between atoms: _41  and  _42
REMARK   19  A    between atoms: _45  and  _47
REMARK   20  A    between atoms: _47  and  _48
REMARK   21  A    between atoms: _47  and  _50
REMARK   22  A    between atoms: _50  and  _51
REMARK   23  A    between atoms: _54  and  _56
REMARK   24  A    between atoms: _56  and  _57
REMARK   25  A    between atoms: _59  and  _61
REMARK   26  A    between atoms: _61  and  _62
REMARK   27  A    between atoms: _65  and  _67
REMARK   28  A    between atoms: _67  and  _68
REMARK   29  A    between atoms: _67  and  _70
REMARK   30  A    between atoms: _70  and  _71
REMARK   31  A    between atoms: _74  and  _76
REMARK   32  A    between atoms: _76  and  _77
REMARK   33  A    between atoms: _76  and  _79
REMARK   34  A    between atoms: _79  and  _80
REMARK   35  A    between atoms: _83  and  _85
REMARK   36  A    between atoms: _85  and  _86
REMARK   37  A    between atoms: _85  and  _88
REMARK   38  A    between atoms: _88  and  _89
REMARK   39  A    between atoms: _92  and  _94
REMARK   40  A    between atoms: _94  and  _95
REMARK   41  A    between atoms: _94  and  _97
REMARK   42  A    between atoms: _100  and  _102
REMARK   43  A    between atoms: _102  and  _103
REMARK   44  A    between atoms: _102  and  _105
REMARK   45  A    between atoms: _106  and  _107
REMARK   46  A    between atoms: _107  and  _108
REMARK   47  A    between atoms: _108  and  _109
REMARK   48  A    between atoms: _113  and  _115
REMARK   49  A    between atoms: _115  and  _116
REMARK   50  A    between atoms: _115  and  _118
REMARK   51  A    between atoms: _118  and  _119
REMARK   52  A    between atoms: _119  and  _120
REMARK   53  A    between atoms: _122  and  _124
REMARK   54  A    between atoms: _124  and  _125
REMARK   55  A    between atoms: _124  and  _127
REMARK   56  A    between atoms: _127  and  _128
REMARK   57  A    between atoms: _131  and  _133
REMARK   58  A    between atoms: _133  and  _134
REMARK   59  A    between atoms: _136  and  _138
REMARK   60  A    between atoms: _138  and  _139
REMARK   61  A    between atoms: _141  and  _143
REMARK   62  A    between atoms: _143  and  _144
REMARK   63  A    between atoms: _143  and  _146
REMARK   64  A    between atoms: _146  and  _147
REMARK   65  A    between atoms: _150  and  _152
REMARK   66  A    between atoms: _152  and  _153
REMARK   67  A    between atoms: _155  and  _157
REMARK   68  A    between atoms: _157  and  _158
REMARK   69  A    between atoms: _160  and  _162
REMARK   70  A    between atoms: _162  and  _163
REMARK   71  A    between atoms: _162  and  _165
REMARK   72  A    between atoms: _165  and  _166
REMARK   73  A    between atoms: _169  and  _171
REMARK   74  A    between atoms: _171  and  _172
REMARK   75  A    between atoms: _171  and  _174
REMARK   76  A    between atoms: _177  and  _179
REMARK   77  A    between atoms: _179  and  _180
REMARK   78  A    between atoms: _179  and  _182
REMARK   79  A    between atoms: _182  and  _183
REMARK   80  A    between atoms: _187  and  _188
REMARK   81  A    between atoms: _193  and  _195
REMARK   82  A    between atoms: _195  and  _196
REMARK   83  A    between atoms: _195  and  _198
REMARK   84  A    between atoms: _198  and  _199
REMARK   85  A    between atoms: _203  and  _204
REMARK   86  A    between atoms: _209  and  _211
REMARK   87  A    between atoms: _211  and  _212
REMARK   88  A    between atoms: _211  and  _214
REMARK   89  A    between atoms: _217  and  _219
REMARK   90  A    between atoms: _219  and  _220
REMARK   91  A    between atoms: _219  and  _222
REMARK   92  A    between atoms: _222  and  _223
REMARK   93  A    between atoms: _228  and  _230
REMARK   94  A    between atoms: _230  and  _231
REMARK   95  A    between atoms: _230  and  _233
REMARK   96  A    between atoms: _233  and  _234
REMARK   97  A    between atoms: _237  and  _239
REMARK   98  A    between atoms: _239  and  _240
REMARK   99  A    between atoms: _239  and  _242
REMARK  100  A    between atoms: _242  and  _243
REMARK  101  A    between atoms: _246  and  _248
REMARK  102  A    between atoms: _248  and  _249
REMARK  103  A    between atoms: _251  and  _253
REMARK  104  A    between atoms: _253  and  _254
REMARK  105  A    between atoms: _253  and  _256
REMARK  106  A    between atoms: _256  and  _257
REMARK  107  A    between atoms: _257  and  _258
REMARK  108  A    between atoms: _258  and  _259
REMARK  109  A    between atoms: _268  and  _270
REMARK  110  A    between atoms: _270  and  _271
REMARK  111  A    between atoms: _270  and  _273
REMARK  112  A    between atoms: _273  and  _274
REMARK  113  A    between atoms: _279  and  _281
REMARK  114  A    between atoms: _281  and  _282
REMARK  115  A    between atoms: _281  and  _284
REMARK  116  A    between atoms: _284  and  _285
REMARK  117  A    between atoms: _285  and  _286
REMARK  118  A    between atoms: _286  and  _287
REMARK  119  A    between atoms: _296  and  _298
REMARK  120  A    between atoms: _298  and  _299
REMARK  121  A    between atoms: _298  and  _301
REMARK  122  A    between atoms: _301  and  _302
REMARK  123  A    between atoms: _305  and  _307
REMARK  124  A    between atoms: _307  and  _308
REMARK  125  A    between atoms: _307  and  _310
REMARK  126  A    between atoms: _310  and  _311
REMARK  127  A    between atoms: _314  and  _316
REMARK  128  A    between atoms: _316  and  _317
REMARK  129  A    between atoms: _316  and  _319
REMARK  130  A    between atoms: _319  and  _320
REMARK  131  A    between atoms: _323  and  _325
REMARK  132  A    between atoms: _325  and  _326
REMARK  133  A    between atoms: _325  and  _328
REMARK  134  A    between atoms: _328  and  _329
REMARK  135  A    between atoms: _332  and  _334
REMARK  136  A    between atoms: _334  and  _335
REMARK  137  A    between atoms: _337  and  _339
REMARK  138  A    between atoms: _339  and  _340
REMARK  139  A    between atoms: _343  and  _345
REMARK  140  A    between atoms: _345  and  _346
REMARK  141  A    between atoms: _345  and  _348
REMARK  142  A    between atoms: _348  and  _349
REMARK  143  A    between atoms: _352  and  _354
REMARK  144  A    between atoms: _354  and  _355
REMARK  145  A    between atoms: _354  and  _357
REMARK  146  A    between atoms: _357  and  _358
REMARK  147  A    between atoms: _361  and  _363
REMARK  148  A    between atoms: _363  and  _364
REMARK  149  A    between atoms: _363  and  _366
REMARK  150  A    between atoms: _366  and  _367
REMARK  151  A    between atoms: _370  and  _372
REMARK  152  A    between atoms: _372  and  _373
REMARK  153  A    between atoms: _372  and  _375
REMARK  154  A    between atoms: _378  and  _380
REMARK  155  A    between atoms: _380  and  _381
REMARK  156  A    between atoms: _380  and  _383
REMARK  157  A    between atoms: _384  and  _385
REMARK  158  A    between atoms: _385  and  _386
REMARK  159  A    between atoms: _386  and  _387
REMARK  160  A    between atoms: _391  and  _393
REMARK  161  A    between atoms: _393  and  _394
REMARK  162  A    between atoms: _393  and  _396
REMARK  163  A    between atoms: _396  and  _397
REMARK  164  A    between atoms: _397  and  _398
REMARK  165  A    between atoms: _400  and  _402
REMARK  166  A    between atoms: _402  and  _403
REMARK  167  A    between atoms: _402  and  _405
REMARK  168  A    between atoms: _405  and  _406
REMARK  169  A    between atoms: _409  and  _411
REMARK  170  A    between atoms: _411  and  _412
REMARK  171  A    between atoms: _414  and  _416
REMARK  172  A    between atoms: _416  and  _417
REMARK  173  A    between atoms: _419  and  _421
REMARK  174  A    between atoms: _421  and  _422
REMARK  175  A    between atoms: _421  and  _424
REMARK  176  A    between atoms: _424  and  _425
REMARK  177  A    between atoms: _428  and  _430
REMARK  178  A    between atoms: _430  and  _431
REMARK  179  A    between atoms: _433  and  _435
REMARK  180  A    between atoms: _435  and  _436
REMARK  181  A    between atoms: _438  and  _440
REMARK  182  A    between atoms: _440  and  _441
REMARK  183  A    between atoms: _440  and  _443
REMARK  184  A    between atoms: _443  and  _444
REMARK  185  A    between atoms: _450  and  _452
REMARK  186  A    between atoms: _452  and  _453
REMARK  187  A    between atoms: _452  and  _455
REMARK  188  A    between atoms: _455  and  _456
REMARK  189  A    between atoms: _459  and  _461
REMARK  190  A    between atoms: _461  and  _462
REMARK  191  A    between atoms: _461  and  _464
REMARK  192  A    between atoms: _467  and  _469
REMARK  193  A    between atoms: _469  and  _470
REMARK  194  A    between atoms: _469  and  _472
REMARK  195  A    between atoms: _472  and  _473
REMARK  196  A    between atoms: _476  and  _478
REMARK  197  A    between atoms: _478  and  _479
REMARK  198  A    between atoms: _478  and  _481
REMARK  199  A    between atoms: _481  and  _482
REMARK  200  A    between atoms: _486  and  _487
REMARK  201  A    between atoms: _492  and  _494
REMARK  202  A    between atoms: _494  and  _495
REMARK  203  A    between atoms: _494  and  _497
REMARK  204  A    between atoms: _500  and  _502
REMARK  205  A    between atoms: _502  and  _503
REMARK  206  A    between atoms: _502  and  _505
REMARK  207  A    between atoms: _505  and  _506
REMARK  208  A    between atoms: _511  and  _513
REMARK  209  A    between atoms: _513  and  _514
REMARK  210  A    between atoms: _513  and  _516
REMARK  211  A    between atoms: _516  and  _517
REMARK  212  A    between atoms: _520  and  _522
REMARK  213  A    between atoms: _522  and  _523
REMARK  214  A    between atoms: _522  and  _525
REMARK  215  A    between atoms: _525  and  _526
REMARK  216  A    between atoms: _529  and  _531
REMARK  217  A    between atoms: _531  and  _532
REMARK  218  A    between atoms: _534  and  _536
REMARK  219  A    between atoms: _536  and  _537
REMARK  220  A    between atoms: _536  and  _539
REMARK  221  A    between atoms: _539  and  _540
REMARK  222  A    between atoms: _540  and  _541
REMARK  223  A    between atoms: _541  and  _542
REMARK  224  A    between atoms: _551  and  _553
REMARK  225  A    between atoms: _553  and  _554
REMARK  226  A    between atoms: _553  and  _556
REMARK  227  A    between atoms: _556  and  _557
REMARK                            x       y       z     vdW  Elec       q    Type
REMARK                         _______ _______ _______ _____ _____    ______ ____
ROOT
ATOM      1  O   HOH     1       9.854  18.350  13.530  0.00  0.00    +0.000 OA
ENDROOT
TORSDOF 0
REMARK  Name = ../refined-set-2016/3a2o/3a2o_pocket.pdb
REMARK  227 active torsions:
REMARK  status: ('A' for Active; 'I' for Inactive)
REMARK    1  A    between atoms: _1  and  _3
REMARK    2  A    between atoms: _3  and  _4
REMARK    3  A    between atoms: _3  and  _6
REMARK    4  A    between atoms: _6  and  _7
REMARK    5  A    between atoms: _7  and  _8
REMARK    6  A    between atoms: _8  and  _9
REMARK    7  A    between atoms: _18  and  _20
REMARK    8  A    between atoms: _20  and  _21
REMARK    9  A    between atoms: _20  and  _23
REMARK   10  A    between atoms: _23  and  _24
REMARK   11  A    between atoms: _27  and  _29
REMARK   12  A    between atoms: _29  and  _30
REMARK   13  A    between atoms: _29  and  _32
REMARK   14  A    between atoms: _32  and  _33
REMARK   15  A    between atoms: _36  and  _38
REMARK   16  A    between atoms: _38  and  _39
REMARK   17  A    between atoms: _38  and  _41
REMARK   18  A    between atoms: _41  and  _42
REMARK   19  A    between atoms: _45  and  _47
REMARK   20  A    between atoms: _47  and  _48
REMARK   21  A    between atoms: _47  and  _50
REMARK   22  A    between atoms: _50  and  _51
REMARK   23  A    between atoms: _54  and  _56
REMARK   24  A    between atoms: _56  and  _57
REMARK   25  A    between atoms: _59  and  _61
REMARK   26  A    between atoms: _61  and  _62
REMARK   27  A    between atoms: _65  and  _67
REMARK   28  A    between atoms: _67  and  _68
REMARK   29  A    between atoms: _67  and  _70
REMARK   30  A    between atoms: _70  and  _71
REMARK   31  A    between atoms: _74  and  _76
REMARK   32  A    between atoms: _76  and  _77
REMARK   33  A    between atoms: _76  and  _79
REMARK   34  A    between atoms: _79  and  _80
REMARK   35  A    between atoms: _83  and  _85
REMARK   36  A    between atoms: _85  and  _86
REMARK   37  A    between atoms: _85  and  _88
REMARK   38  A    between atoms: _88  and  _89
REMARK   39  A    between atoms: _92  and  _94
REMARK   40  A    between atoms: _94  and  _95
REMARK   41  A    between atoms: _94  and  _97
REMARK   42  A    between atoms: _100  and  _102
REMARK   43  A    between atoms: _102  and  _103
REMARK   44  A    between atoms: _102  and  _105
REMARK   45  A    between atoms: _106  and  _107
REMARK   46  A    between atoms: _107  and  _108
REMARK   47  A    between atoms: _108  and  _109
REMARK   48  A    between atoms: _113  and  _115
REMARK   49  A    between atoms: _115  and  _116
REMARK   50  A    between atoms: _115  and  _118
REMARK   51  A    between atoms: _118  and  _119
REMARK   52  A    between atoms: _119  and  _120
REMARK   53  A    between atoms: _122  and  _124
REMARK   54  A    between atoms: _124  and  _125
REMARK   55  A    between atoms: _124  and  _127
REMARK   56  A    between atoms: _127  and  _128
REMARK   57  A    between atoms: _131  and  _133
REMARK   58  A    between atoms: _133  and  _134
REMARK   59  A    between atoms: _136  and  _138
REMARK   60  A    between atoms: _138  and  _139
REMARK   61  A    between atoms: _141  and  _143
REMARK   62  A    between atoms: _143  and  _144
REMARK   63  A    between atoms: _143  and  _146
REMARK   64  A    between atoms: _146  and  _147
REMARK   65  A    between atoms: _150  and  _152
REMARK   66  A    between atoms: _152  and  _153
REMARK   67  A    between atoms: _155  and  _157
REMARK   68  A    between atoms: _157  and  _158
REMARK   69  A    between atoms: _160  and  _162
REMARK   70  A    between atoms: _162  and  _163
REMARK   71  A    between atoms: _162  and  _165
REMARK   72  A    between atoms: _165  and  _166
REMARK   73  A    between atoms: _169  and  _171
REMARK   74  A    between atoms: _171  and  _172
REMARK   75  A    between atoms: _171  and  _174
REMARK   76  A    between atoms: _177  and  _179
REMARK   77  A    between atoms: _179  and  _180
REMARK   78  A    between atoms: _179  and  _182
REMARK   79  A    between atoms: _182  and  _183
REMARK   80  A    between atoms: _187  and  _188
REMARK   81  A    between atoms: _193  and  _195
REMARK   82  A    between atoms: _195  and  _196
REMARK   83  A    between atoms: _195  and  _198
REMARK   84  A    between atoms: _198  and  _199
REMARK   85  A    between atoms: _203  and  _204
REMARK   86  A    between atoms: _209  and  _211
REMARK   87  A    between atoms: _211  and  _212
REMARK   88  A    between atoms: _211  and  _214
REMARK   89  A    between atoms: _217  and  _219
REMARK   90  A    between atoms: _219  and  _220
REMARK   91  A    between atoms: _219  and  _222
REMARK   92  A    between atoms: _222  and  _223
REMARK   93  A    between atoms: _228  and  _230
REMARK   94  A    between atoms: _230  and  _231
REMARK   95  A    between atoms: _230  and  _233
REMARK   96  A    between atoms: _233  and  _234
REMARK   97  A    between atoms: _237  and  _239
REMARK   98  A    between atoms: _239  and  _240
REMARK   99  A    between atoms: _239  and  _242
REMARK  100  A    between atoms: _242  and  _243
REMARK  101  A    between atoms: _246  and  _248
REMARK  102  A    between atoms: _248  and  _249
REMARK  103  A    between atoms: _251  and  _253
REMARK  104  A    between atoms: _253  and  _254
REMARK  105  A    between atoms: _253  and  _256
REMARK  106  A    between atoms: _256  and  _257
REMARK  107  A    between atoms: _257  and  _258
REMARK  108  A    between atoms: _258  and  _259
REMARK  109  A    between atoms: _268  and  _270
REMARK  110  A    between atoms: _270  and  _271
REMARK  111  A    between atoms: _270  and  _273
REMARK  112  A    between atoms: _273  and  _274
REMARK  113  A    between atoms: _279  and  _281
REMARK  114  A    between atoms: _281  and  _282
REMARK  115  A    between atoms: _281  and  _284
REMARK  116  A    between atoms: _284  and  _285
REMARK  117  A    between atoms: _285  and  _286
REMARK  118  A    between atoms: _286  and  _287
REMARK  119  A    between atoms: _296  and  _298
REMARK  120  A    between atoms: _298  and  _299
REMARK  121  A    between atoms: _298  and  _301
REMARK  122  A    between atoms: _301  and  _302
REMARK  123  A    between atoms: _305  and  _307
REMARK  124  A    between atoms: _307  and  _308
REMARK  125  A    between atoms: _307  and  _310
REMARK  126  A    between atoms: _310  and  _311
REMARK  127  A    between atoms: _314  and  _316
REMARK  128  A    between atoms: _316  and  _317
REMARK  129  A    between atoms: _316  and  _319
REMARK  130  A    between atoms: _319  and  _320
REMARK  131  A    between atoms: _323  and  _325
REMARK  132  A    between atoms: _325  and  _326
REMARK  133  A    between atoms: _325  and  _328
REMARK  134  A    between atoms: _328  and  _329
REMARK  135  A    between atoms: _332  and  _334
REMARK  136  A    between atoms: _334  and  _335
REMARK  137  A    between atoms: _337  and  _339
REMARK  138  A    between atoms: _339  and  _340
REMARK  139  A    between atoms: _343  and  _345
REMARK  140  A    between atoms: _345  and  _346
REMARK  141  A    between atoms: _345  and  _348
REMARK  142  A    between atoms: _348  and  _349
REMARK  143  A    between atoms: _352  and  _354
REMARK  144  A    between atoms: _354  and  _355
REMARK  145  A    between atoms: _354  and  _357
REMARK  146  A    between atoms: _357  and  _358
REMARK  147  A    between atoms: _361  and  _363
REMARK  148  A    between atoms: _363  and  _364
REMARK  149  A    between atoms: _363  and  _366
REMARK  150  A    between atoms: _366  and  _367
REMARK  151  A    between atoms: _370  and  _372
REMARK  152  A    between atoms: _372  and  _373
REMARK  153  A    between atoms: _372  and  _375
REMARK  154  A    between atoms: _378  and  _380
REMARK  155  A    between atoms: _380  and  _381
REMARK  156  A    between atoms: _380  and  _383
REMARK  157  A    between atoms: _384  and  _385
REMARK  158  A    between atoms: _385  and  _386
REMARK  159  A    between atoms: _386  and  _387
REMARK  160  A    between atoms: _391  and  _393
REMARK  161  A    between atoms: _393  and  _394
REMARK  162  A    between atoms: _393  and  _396
REMARK  163  A    between atoms: _396  and  _397
REMARK  164  A    between atoms: _397  and  _398
REMARK  165  A    between atoms: _400  and  _402
REMARK  166  A    between atoms: _402  and  _403
REMARK  167  A    between atoms: _402  and  _405
REMARK  168  A    between atoms: _405  and  _406
REMARK  169  A    between atoms: _409  and  _411
REMARK  170  A    between atoms: _411  and  _412
REMARK  171  A    between atoms: _414  and  _416
REMARK  172  A    between atoms: _416  and  _417
REMARK  173  A    between atoms: _419  and  _421
REMARK  174  A    between atoms: _421  and  _422
REMARK  175  A    between atoms: _421  and  _424
REMARK  176  A    between atoms: _424  and  _425
REMARK  177  A    between atoms: _428  and  _430
REMARK  178  A    between atoms: _430  and  _431
REMARK  179  A    between atoms: _433  and  _435
REMARK  180  A    between atoms: _435  and  _436
REMARK  181  A    between atoms: _438  and  _440
REMARK  182  A    between atoms: _440  and  _441
REMARK  183  A    between atoms: _440  and  _443
REMARK  184  A    between atoms: _443  and  _444
REMARK  185  A    between atoms: _450  and  _452
REMARK  186  A    between atoms: _452  and  _453
REMARK  187  A    between atoms: _452  and  _455
REMARK  188  A    between atoms: _455  and  _456
REMARK  189  A    between atoms: _459  and  _461
REMARK  190  A    between atoms: _461  and  _462
REMARK  191  A    between atoms: _461  and  _464
REMARK  192  A    between atoms: _467  and  _469
REMARK  193  A    between atoms: _469  and  _470
REMARK  194  A    between atoms: _469  and  _472
REMARK  195  A    between atoms: _472  and  _473
REMARK  196  A    between atoms: _476  and  _478
REMARK  197  A    between atoms: _478  and  _479
REMARK  198  A    between atoms: _478  and  _481
REMARK  199  A    between atoms: _481  and  _482
REMARK  200  A    between atoms: _486  and  _487
REMARK  201  A    between atoms: _492  and  _494
REMARK  202  A    between atoms: _494  and  _495
REMARK  203  A    between atoms: _494  and  _497
REMARK  204  A    between atoms: _500  and  _502
REMARK  205  A    between atoms: _502  and  _503
REMARK  206  A    between atoms: _502  and  _505
REMARK  207  A    between atoms: _505  and  _506
REMARK  208  A    between atoms: _511  and  _513
REMARK  209  A    between atoms: _513  and  _514
REMARK  210  A    between atoms: _513  and  _516
REMARK  211  A    between atoms: _516  and  _517
REMARK  212  A    between atoms: _520  and  _522
REMARK  213  A    between atoms: _522  and  _523
REMARK  214  A    between atoms: _522  and  _525
REMARK  215  A    between atoms: _525  and  _526
REMARK  216  A    between atoms: _529  and  _531
REMARK  217  A    between atoms: _531  and  _532
REMARK  218  A    between atoms: _534  and  _536
REMARK  219  A    between atoms: _536  and  _537
REMARK  220  A    between atoms: _536  and  _539
REMARK  221  A    between atoms: _539  and  _540
REMARK  222  A    between atoms: _540  and  _541
REMARK  223  A    between atoms: _541  and  _542
REMARK  224  A    between atoms: _551  and  _553
REMARK  225  A    between atoms: _553  and  _554
REMARK  226  A    between atoms: _553  and  _556
REMARK  227  A    between atoms: _556  and  _557
REMARK                            x       y       z     vdW  Elec       q    Type
REMARK                         _______ _______ _______ _____ _____    ______ ____
ROOT
ATOM      1  O   HOH     1      25.685  29.720  17.482  0.00  0.00    +0.000 OA
ENDROOT
TORSDOF 0
REMARK  Name = ../refined-set-2016/3a2o/3a2o_pocket.pdb
REMARK  227 active torsions:
REMARK  status: ('A' for Active; 'I' for Inactive)
REMARK    1  A    between atoms: _1  and  _3
REMARK    2  A    between atoms: _3  and  _4
REMARK    3  A    between atoms: _3  and  _6
REMARK    4  A    between atoms: _6  and  _7
REMARK    5  A    between atoms: _7  and  _8
REMARK    6  A    between atoms: _8  and  _9
REMARK    7  A    between atoms: _18  and  _20
REMARK    8  A    between atoms: _20  and  _21
REMARK    9  A    between atoms: _20  and  _23
REMARK   10  A    between atoms: _23  and  _24
REMARK   11  A    between atoms: _27  and  _29
REMARK   12  A    between atoms: _29  and  _30
REMARK   13  A    between atoms: _29  and  _32
REMARK   14  A    between atoms: _32  and  _33
REMARK   15  A    between atoms: _36  and  _38
REMARK   16  A    between atoms: _38  and  _39
REMARK   17  A    between atoms: _38  and  _41
REMARK   18  A    between atoms: _41  and  _42
REMARK   19  A    between atoms: _45  and  _47
REMARK   20  A    between atoms: _47  and  _48
REMARK   21  A    between atoms: _47  and  _50
REMARK   22  A    between atoms: _50  and  _51
REMARK   23  A    between atoms: _54  and  _56
REMARK   24  A    between atoms: _56  and  _57
REMARK   25  A    between atoms: _59  and  _61
REMARK   26  A    between atoms: _61  and  _62
REMARK   27  A    between atoms: _65  and  _67
REMARK   28  A    between atoms: _67  and  _68
REMARK   29  A    between atoms: _67  and  _70
REMARK   30  A    between atoms: _70  and  _71
REMARK   31  A    between atoms: _74  and  _76
REMARK   32  A    between atoms: _76  and  _77
REMARK   33  A    between atoms: _76  and  _79
REMARK   34  A    between atoms: _79  and  _80
REMARK   35  A    between atoms: _83  and  _85
REMARK   36  A    between atoms: _85  and  _86
REMARK   37  A    between atoms: _85  and  _88
REMARK   38  A    between atoms: _88  and  _89
REMARK   39  A    between atoms: _92  and  _94
REMARK   40  A    between atoms: _94  and  _95
REMARK   41  A    between atoms: _94  and  _97
REMARK   42  A    between atoms: _100  and  _102
REMARK   43  A    between atoms: _102  and  _103
REMARK   44  A    between atoms: _102  and  _105
REMARK   45  A    between atoms: _106  and  _107
REMARK   46  A    between atoms: _107  and  _108
REMARK   47  A    between atoms: _108  and  _109
REMARK   48  A    between atoms: _113  and  _115
REMARK   49  A    between atoms: _115  and  _116
REMARK   50  A    between atoms: _115  and  _118
REMARK   51  A    between atoms: _118  and  _119
REMARK   52  A    between atoms: _119  and  _120
REMARK   53  A    between atoms: _122  and  _124
REMARK   54  A    between atoms: _124  and  _125
REMARK   55  A    between atoms: _124  and  _127
REMARK   56  A    between atoms: _127  and  _128
REMARK   57  A    between atoms: _131  and  _133
REMARK   58  A    between atoms: _133  and  _134
REMARK   59  A    between atoms: _136  and  _138
REMARK   60  A    between atoms: _138  and  _139
REMARK   61  A    between atoms: _141  and  _143
REMARK   62  A    between atoms: _143  and  _144
REMARK   63  A    between atoms: _143  and  _146
REMARK   64  A    between atoms: _146  and  _147
REMARK   65  A    between atoms: _150  and  _152
REMARK   66  A    between atoms: _152  and  _153
REMARK   67  A    between atoms: _155  and  _157
REMARK   68  A    between atoms: _157  and  _158
REMARK   69  A    between atoms: _160  and  _162
REMARK   70  A    between atoms: _162  and  _163
REMARK   71  A    between atoms: _162  and  _165
REMARK   72  A    between atoms: _165  and  _166
REMARK   73  A    between atoms: _169  and  _171
REMARK   74  A    between atoms: _171  and  _172
REMARK   75  A    between atoms: _171  and  _174
REMARK   76  A    between atoms: _177  and  _179
REMARK   77  A    between atoms: _179  and  _180
REMARK   78  A    between atoms: _179  and  _182
REMARK   79  A    between atoms: _182  and  _183
REMARK   80  A    between atoms: _187  and  _188
REMARK   81  A    between atoms: _193  and  _195
REMARK   82  A    between atoms: _195  and  _196
REMARK   83  A    between atoms: _195  and  _198
REMARK   84  A    between atoms: _198  and  _199
REMARK   85  A    between atoms: _203  and  _204
REMARK   86  A    between atoms: _209  and  _211
REMARK   87  A    between atoms: _211  and  _212
REMARK   88  A    between atoms: _211  and  _214
REMARK   89  A    between atoms: _217  and  _219
REMARK   90  A    between atoms: _219  and  _220
REMARK   91  A    between atoms: _219  and  _222
REMARK   92  A    between atoms: _222  and  _223
REMARK   93  A    between atoms: _228  and  _230
REMARK   94  A    between atoms: _230  and  _231
REMARK   95  A    between atoms: _230  and  _233
REMARK   96  A    between atoms: _233  and  _234
REMARK   97  A    between atoms: _237  and  _239
REMARK   98  A    between atoms: _239  and  _240
REMARK   99  A    between atoms: _239  and  _242
REMARK  100  A    between atoms: _242  and  _243
REMARK  101  A    between atoms: _246  and  _248
REMARK  102  A    between atoms: _248  and  _249
REMARK  103  A    between atoms: _251  and  _253
REMARK  104  A    between atoms: _253  and  _254
REMARK  105  A    between atoms: _253  and  _256
REMARK  106  A    between atoms: _256  and  _257
REMARK  107  A    between atoms: _257  and  _258
REMARK  108  A    between atoms: _258  and  _259
REMARK  109  A    between atoms: _268  and  _270
REMARK  110  A    between atoms: _270  and  _271
REMARK  111  A    between atoms: _270  and  _273
REMARK  112  A    between atoms: _273  and  _274
REMARK  113  A    between atoms: _279  and  _281
REMARK  114  A    between atoms: _281  and  _282
REMARK  115  A    between atoms: _281  and  _284
REMARK  116  A    between atoms: _284  and  _285
REMARK  117  A    between atoms: _285  and  _286
REMARK  118  A    between atoms: _286  and  _287
REMARK  119  A    between atoms: _296  and  _298
REMARK  120  A    between atoms: _298  and  _299
REMARK  121  A    between atoms: _298  and  _301
REMARK  122  A    between atoms: _301  and  _302
REMARK  123  A    between atoms: _305  and  _307
REMARK  124  A    between atoms: _307  and  _308
REMARK  125  A    between atoms: _307  and  _310
REMARK  126  A    between atoms: _310  and  _311
REMARK  127  A    between atoms: _314  and  _316
REMARK  128  A    between atoms: _316  and  _317
REMARK  129  A    between atoms: _316  and  _319
REMARK  130  A    between atoms: _319  and  _320
REMARK  131  A    between atoms: _323  and  _325
REMARK  132  A    between atoms: _325  and  _326
REMARK  133  A    between atoms: _325  and  _328
REMARK  134  A    between atoms: _328  and  _329
REMARK  135  A    between atoms: _332  and  _334
REMARK  136  A    between atoms: _334  and  _335
REMARK  137  A    between atoms: _337  and  _339
REMARK  138  A    between atoms: _339  and  _340
REMARK  139  A    between atoms: _343  and  _345
REMARK  140  A    between atoms: _345  and  _346
REMARK  141  A    between atoms: _345  and  _348
REMARK  142  A    between atoms: _348  and  _349
REMARK  143  A    between atoms: _352  and  _354
REMARK  144  A    between atoms: _354  and  _355
REMARK  145  A    between atoms: _354  and  _357
REMARK  146  A    between atoms: _357  and  _358
REMARK  147  A    between atoms: _361  and  _363
REMARK  148  A    between atoms: _363  and  _364
REMARK  149  A    between atoms: _363  and  _366
REMARK  150  A    between atoms: _366  and  _367
REMARK  151  A    between atoms: _370  and  _372
REMARK  152  A    between atoms: _372  and  _373
REMARK  153  A    between atoms: _372  and  _375
REMARK  154  A    between atoms: _378  and  _380
REMARK  155  A    between atoms: _380  and  _381
REMARK  156  A    between atoms: _380  and  _383
REMARK  157  A    between atoms: _384  and  _385
REMARK  158  A    between atoms: _385  and  _386
REMARK  159  A    between atoms: _386  and  _387
REMARK  160  A    between atoms: _391  and  _393
REMARK  161  A    between atoms: _393  and  _394
REMARK  162  A    between atoms: _393  and  _396
REMARK  163  A    between atoms: _396  and  _397
REMARK  164  A    between atoms: _397  and  _398
REMARK  165  A    between atoms: _400  and  _402
REMARK  166  A    between atoms: _402  and  _403
REMARK  167  A    between atoms: _402  and  _405
REMARK  168  A    between atoms: _405  and  _406
REMARK  169  A    between atoms: _409  and  _411
REMARK  170  A    between atoms: _411  and  _412
REMARK  171  A    between atoms: _414  and  _416
REMARK  172  A    between atoms: _416  and  _417
REMARK  173  A    between atoms: _419  and  _421
REMARK  174  A    between atoms: _421  and  _422
REMARK  175  A    between atoms: _421  and  _424
REMARK  176  A    between atoms: _424  and  _425
REMARK  177  A    between atoms: _428  and  _430
REMARK  178  A    between atoms: _430  and  _431
REMARK  179  A    between atoms: _433  and  _435
REMARK  180  A    between atoms: _435  and  _436
REMARK  181  A    between atoms: _438  and  _440
REMARK  182  A    between atoms: _440  and  _441
REMARK  183  A    between atoms: _440  and  _443
REMARK  184  A    between atoms: _443  and  _444
REMARK  185  A    between atoms: _450  and  _452
REMARK  186  A    between atoms: _452  and  _453
REMARK  187  A    between atoms: _452  and  _455
REMARK  188  A    between atoms: _455  and  _456
REMARK  189  A    between atoms: _459  and  _461
REMARK  190  A    between atoms: _461  and  _462
REMARK  191  A    between atoms: _461  and  _464
REMARK  192  A    between atoms: _467  and  _469
REMARK  193  A    between atoms: _469  and  _470
REMARK  194  A    between atoms: _469  and  _472
REMARK  195  A    between atoms: _472  and  _473
REMARK  196  A    between atoms: _476  and  _478
REMARK  197  A    between atoms: _478  and  _479
REMARK  198  A    between atoms: _478  and  _481
REMARK  199  A    between atoms: _481  and  _482
REMARK  200  A    between atoms: _486  and  _487
REMARK  201  A    between atoms: _492  and  _494
REMARK  202  A    between atoms: _494  and  _495
REMARK  203  A    between atoms: _494  and  _497
REMARK  204  A    between atoms: _500  and  _502
REMARK  205  A    between atoms: _502  and  _503
REMARK  206  A    between atoms: _502  and  _505
REMARK  207  A    between atoms: _505  and  _506
REMARK  208  A    between atoms: _511  and  _513
REMARK  209  A    between atoms: _513  and  _514
REMARK  210  A    between atoms: _513  and  _516
REMARK  211  A    between atoms: _516  and  _517
REMARK  212  A    between atoms: _520  and  _522
REMARK  213  A    between atoms: _522  and  _523
REMARK  214  A    between atoms: _522  and  _525
REMARK  215  A    between atoms: _525  and  _526
REMARK  216  A    between atoms: _529  and  _531
REMARK  217  A    between atoms: _531  and  _532
REMARK  218  A    between atoms: _534  and  _536
REMARK  219  A    between atoms: _536  and  _537
REMARK  220  A    between atoms: _536  and  _539
REMARK  221  A    between atoms: _539  and  _540
REMARK  222  A    between atoms: _540  and  _541
REMARK  223  A    between atoms: _541  and  _542
REMARK  224  A    between atoms: _551  and  _553
REMARK  225  A    between atoms: _553  and  _554
REMARK  226  A    between atoms: _553  and  _556
REMARK  227  A    between atoms: _556  and  _557
REMARK                            x       y       z     vdW  Elec       q    Type
REMARK                         _______ _______ _______ _____ _____    ______ ____
ROOT
ATOM      1  O   HOH     1       7.542  22.776   8.954  0.00  0.00    +0.000 OA
ENDROOT
TORSDOF 0
REMARK  Name = ../refined-set-2016/3a2o/3a2o_pocket.pdb
REMARK  227 active torsions:
REMARK  status: ('A' for Active; 'I' for Inactive)
REMARK    1  A    between atoms: _1  and  _3
REMARK    2  A    between atoms: _3  and  _4
REMARK    3  A    between atoms: _3  and  _6
REMARK    4  A    between atoms: _6  and  _7
REMARK    5  A    between atoms: _7  and  _8
REMARK    6  A    between atoms: _8  and  _9
REMARK    7  A    between atoms: _18  and  _20
REMARK    8  A    between atoms: _20  and  _21
REMARK    9  A    between atoms: _20  and  _23
REMARK   10  A    between atoms: _23  and  _24
REMARK   11  A    between atoms: _27  and  _29
REMARK   12  A    between atoms: _29  and  _30
REMARK   13  A    between atoms: _29  and  _32
REMARK   14  A    between atoms: _32  and  _33
REMARK   15  A    between atoms: _36  and  _38
REMARK   16  A    between atoms: _38  and  _39
REMARK   17  A    between atoms: _38  and  _41
REMARK   18  A    between atoms: _41  and  _42
REMARK   19  A    between atoms: _45  and  _47
REMARK   20  A    between atoms: _47  and  _48
REMARK   21  A    between atoms: _47  and  _50
REMARK   22  A    between atoms: _50  and  _51
REMARK   23  A    between atoms: _54  and  _56
REMARK   24  A    between atoms: _56  and  _57
REMARK   25  A    between atoms: _59  and  _61
REMARK   26  A    between atoms: _61  and  _62
REMARK   27  A    between atoms: _65  and  _67
REMARK   28  A    between atoms: _67  and  _68
REMARK   29  A    between atoms: _67  and  _70
REMARK   30  A    between atoms: _70  and  _71
REMARK   31  A    between atoms: _74  and  _76
REMARK   32  A    between atoms: _76  and  _77
REMARK   33  A    between atoms: _76  and  _79
REMARK   34  A    between atoms: _79  and  _80
REMARK   35  A    between atoms: _83  and  _85
REMARK   36  A    between atoms: _85  and  _86
REMARK   37  A    between atoms: _85  and  _88
REMARK   38  A    between atoms: _88  and  _89
REMARK   39  A    between atoms: _92  and  _94
REMARK   40  A    between atoms: _94  and  _95
REMARK   41  A    between atoms: _94  and  _97
REMARK   42  A    between atoms: _100  and  _102
REMARK   43  A    between atoms: _102  and  _103
REMARK   44  A    between atoms: _102  and  _105
REMARK   45  A    between atoms: _106  and  _107
REMARK   46  A    between atoms: _107  and  _108
REMARK   47  A    between atoms: _108  and  _109
REMARK   48  A    between atoms: _113  and  _115
REMARK   49  A    between atoms: _115  and  _116
REMARK   50  A    between atoms: _115  and  _118
REMARK   51  A    between atoms: _118  and  _119
REMARK   52  A    between atoms: _119  and  _120
REMARK   53  A    between atoms: _122  and  _124
REMARK   54  A    between atoms: _124  and  _125
REMARK   55  A    between atoms: _124  and  _127
REMARK   56  A    between atoms: _127  and  _128
REMARK   57  A    between atoms: _131  and  _133
REMARK   58  A    between atoms: _133  and  _134
REMARK   59  A    between atoms: _136  and  _138
REMARK   60  A    between atoms: _138  and  _139
REMARK   61  A    between atoms: _141  and  _143
REMARK   62  A    between atoms: _143  and  _144
REMARK   63  A    between atoms: _143  and  _146
REMARK   64  A    between atoms: _146  and  _147
REMARK   65  A    between atoms: _150  and  _152
REMARK   66  A    between atoms: _152  and  _153
REMARK   67  A    between atoms: _155  and  _157
REMARK   68  A    between atoms: _157  and  _158
REMARK   69  A    between atoms: _160  and  _162
REMARK   70  A    between atoms: _162  and  _163
REMARK   71  A    between atoms: _162  and  _165
REMARK   72  A    between atoms: _165  and  _166
REMARK   73  A    between atoms: _169  and  _171
REMARK   74  A    between atoms: _171  and  _172
REMARK   75  A    between atoms: _171  and  _174
REMARK   76  A    between atoms: _177  and  _179
REMARK   77  A    between atoms: _179  and  _180
REMARK   78  A    between atoms: _179  and  _182
REMARK   79  A    between atoms: _182  and  _183
REMARK   80  A    between atoms: _187  and  _188
REMARK   81  A    between atoms: _193  and  _195
REMARK   82  A    between atoms: _195  and  _196
REMARK   83  A    between atoms: _195  and  _198
REMARK   84  A    between atoms: _198  and  _199
REMARK   85  A    between atoms: _203  and  _204
REMARK   86  A    between atoms: _209  and  _211
REMARK   87  A    between atoms: _211  and  _212
REMARK   88  A    between atoms: _211  and  _214
REMARK   89  A    between atoms: _217  and  _219
REMARK   90  A    between atoms: _219  and  _220
REMARK   91  A    between atoms: _219  and  _222
REMARK   92  A    between atoms: _222  and  _223
REMARK   93  A    between atoms: _228  and  _230
REMARK   94  A    between atoms: _230  and  _231
REMARK   95  A    between atoms: _230  and  _233
REMARK   96  A    between atoms: _233  and  _234
REMARK   97  A    between atoms: _237  and  _239
REMARK   98  A    between atoms: _239  and  _240
REMARK   99  A    between atoms: _239  and  _242
REMARK  100  A    between atoms: _242  and  _243
REMARK  101  A    between atoms: _246  and  _248
REMARK  102  A    between atoms: _248  and  _249
REMARK  103  A    between atoms: _251  and  _253
REMARK  104  A    between atoms: _253  and  _254
REMARK  105  A    between atoms: _253  and  _256
REMARK  106  A    between atoms: _256  and  _257
REMARK  107  A    between atoms: _257  and  _258
REMARK  108  A    between atoms: _258  and  _259
REMARK  109  A    between atoms: _268  and  _270
REMARK  110  A    between atoms: _270  and  _271
REMARK  111  A    between atoms: _270  and  _273
REMARK  112  A    between atoms: _273  and  _274
REMARK  113  A    between atoms: _279  and  _281
REMARK  114  A    between atoms: _281  and  _282
REMARK  115  A    between atoms: _281  and  _284
REMARK  116  A    between atoms: _284  and  _285
REMARK  117  A    between atoms: _285  and  _286
REMARK  118  A    between atoms: _286  and  _287
REMARK  119  A    between atoms: _296  and  _298
REMARK  120  A    between atoms: _298  and  _299
REMARK  121  A    between atoms: _298  and  _301
REMARK  122  A    between atoms: _301  and  _302
REMARK  123  A    between atoms: _305  and  _307
REMARK  124  A    between atoms: _307  and  _308
REMARK  125  A    between atoms: _307  and  _310
REMARK  126  A    between atoms: _310  and  _311
REMARK  127  A    between atoms: _314  and  _316
REMARK  128  A    between atoms: _316  and  _317
REMARK  129  A    between atoms: _316  and  _319
REMARK  130  A    between atoms: _319  and  _320
REMARK  131  A    between atoms: _323  and  _325
REMARK  132  A    between atoms: _325  and  _326
REMARK  133  A    between atoms: _325  and  _328
REMARK  134  A    between atoms: _328  and  _329
REMARK  135  A    between atoms: _332  and  _334
REMARK  136  A    between atoms: _334  and  _335
REMARK  137  A    between atoms: _337  and  _339
REMARK  138  A    between atoms: _339  and  _340
REMARK  139  A    between atoms: _343  and  _345
REMARK  140  A    between atoms: _345  and  _346
REMARK  141  A    between atoms: _345  and  _348
REMARK  142  A    between atoms: _348  and  _349
REMARK  143  A    between atoms: _352  and  _354
REMARK  144  A    between atoms: _354  and  _355
REMARK  145  A    between atoms: _354  and  _357
REMARK  146  A    between atoms: _357  and  _358
REMARK  147  A    between atoms: _361  and  _363
REMARK  148  A    between atoms: _363  and  _364
REMARK  149  A    between atoms: _363  and  _366
REMARK  150  A    between atoms: _366  and  _367
REMARK  151  A    between atoms: _370  and  _372
REMARK  152  A    between atoms: _372  and  _373
REMARK  153  A    between atoms: _372  and  _375
REMARK  154  A    between atoms: _378  and  _380
REMARK  155  A    between atoms: _380  and  _381
REMARK  156  A    between atoms: _380  and  _383
REMARK  157  A    between atoms: _384  and  _385
REMARK  158  A    between atoms: _385  and  _386
REMARK  159  A    between atoms: _386  and  _387
REMARK  160  A    between atoms: _391  and  _393
REMARK  161  A    between atoms: _393  and  _394
REMARK  162  A    between atoms: _393  and  _396
REMARK  163  A    between atoms: _396  and  _397
REMARK  164  A    between atoms: _397  and  _398
REMARK  165  A    between atoms: _400  and  _402
REMARK  166  A    between atoms: _402  and  _403
REMARK  167  A    between atoms: _402  and  _405
REMARK  168  A    between atoms: _405  and  _406
REMARK  169  A    between atoms: _409  and  _411
REMARK  170  A    between atoms: _411  and  _412
REMARK  171  A    between atoms: _414  and  _416
REMARK  172  A    between atoms: _416  and  _417
REMARK  173  A    between atoms: _419  and  _421
REMARK  174  A    between atoms: _421  and  _422
REMARK  175  A    between atoms: _421  and  _424
REMARK  176  A    between atoms: _424  and  _425
REMARK  177  A    between atoms: _428  and  _430
REMARK  178  A    between atoms: _430  and  _431
REMARK  179  A    between atoms: _433  and  _435
REMARK  180  A    between atoms: _435  and  _436
REMARK  181  A    between atoms: _438  and  _440
REMARK  182  A    between atoms: _440  and  _441
REMARK  183  A    between atoms: _440  and  _443
REMARK  184  A    between atoms: _443  and  _444
REMARK  185  A    between atoms: _450  and  _452
REMARK  186  A    between atoms: _452  and  _453
REMARK  187  A    between atoms: _452  and  _455
REMARK  188  A    between atoms: _455  and  _456
REMARK  189  A    between atoms: _459  and  _461
REMARK  190  A    between atoms: _461  and  _462
REMARK  191  A    between atoms: _461  and  _464
REMARK  192  A    between atoms: _467  and  _469
REMARK  193  A    between atoms: _469  and  _470
REMARK  194  A    between atoms: _469  and  _472
REMARK  195  A    between atoms: _472  and  _473
REMARK  196  A    between atoms: _476  and  _478
REMARK  197  A    between atoms: _478  and  _479
REMARK  198  A    between atoms: _478  and  _481
REMARK  199  A    between atoms: _481  and  _482
REMARK  200  A    between atoms: _486  and  _487
REMARK  201  A    between atoms: _492  and  _494
REMARK  202  A    between atoms: _494  and  _495
REMARK  203  A    between atoms: _494  and  _497
REMARK  204  A    between atoms: _500  and  _502
REMARK  205  A    between atoms: _502  and  _503
REMARK  206  A    between atoms: _502  and  _505
REMARK  207  A    between atoms: _505  and  _506
REMARK  208  A    between atoms: _511  and  _513
REMARK  209  A    between atoms: _513  and  _514
REMARK  210  A    between atoms: _513  and  _516
REMARK  211  A    between atoms: _516  and  _517
REMARK  212  A    between atoms: _520  and  _522
REMARK  213  A    between atoms: _522  and  _523
REMARK  214  A    between atoms: _522  and  _525
REMARK  215  A    between atoms: _525  and  _526
REMARK  216  A    between atoms: _529  and  _531
REMARK  217  A    between atoms: _531  and  _532
REMARK  218  A    between atoms: _534  and  _536
REMARK  219  A    between atoms: _536  and  _537
REMARK  220  A    between atoms: _536  and  _539
REMARK  221  A    between atoms: _539  and  _540
REMARK  222  A    between atoms: _540  and  _541
REMARK  223  A    between atoms: _541  and  _542
REMARK  224  A    between atoms: _551  and  _553
REMARK  225  A    between atoms: _553  and  _554
REMARK  226  A    between atoms: _553  and  _556
REMARK  227  A    between atoms: _556  and  _557
REMARK                            x       y       z     vdW  Elec       q    Type
REMARK                         _______ _______ _______ _____ _____    ______ ____
ROOT
ATOM      1  O   HOH     1      24.661  24.708  18.313  0.00  0.00    +0.000 OA
ENDROOT
TORSDOF 0
REMARK  Name = ../refined-set-2016/3a2o/3a2o_pocket.pdb
REMARK  227 active torsions:
REMARK  status: ('A' for Active; 'I' for Inactive)
REMARK    1  A    between atoms: _1  and  _3
REMARK    2  A    between atoms: _3  and  _4
REMARK    3  A    between atoms: _3  and  _6
REMARK    4  A    between atoms: _6  and  _7
REMARK    5  A    between atoms: _7  and  _8
REMARK    6  A    between atoms: _8  and  _9
REMARK    7  A    between atoms: _18  and  _20
REMARK    8  A    between atoms: _20  and  _21
REMARK    9  A    between atoms: _20  and  _23
REMARK   10  A    between atoms: _23  and  _24
REMARK   11  A    between atoms: _27  and  _29
REMARK   12  A    between atoms: _29  and  _30
REMARK   13  A    between atoms: _29  and  _32
REMARK   14  A    between atoms: _32  and  _33
REMARK   15  A    between atoms: _36  and  _38
REMARK   16  A    between atoms: _38  and  _39
REMARK   17  A    between atoms: _38  and  _41
REMARK   18  A    between atoms: _41  and  _42
REMARK   19  A    between atoms: _45  and  _47
REMARK   20  A    between atoms: _47  and  _48
REMARK   21  A    between atoms: _47  and  _50
REMARK   22  A    between atoms: _50  and  _51
REMARK   23  A    between atoms: _54  and  _56
REMARK   24  A    between atoms: _56  and  _57
REMARK   25  A    between atoms: _59  and  _61
REMARK   26  A    between atoms: _61  and  _62
REMARK   27  A    between atoms: _65  and  _67
REMARK   28  A    between atoms: _67  and  _68
REMARK   29  A    between atoms: _67  and  _70
REMARK   30  A    between atoms: _70  and  _71
REMARK   31  A    between atoms: _74  and  _76
REMARK   32  A    between atoms: _76  and  _77
REMARK   33  A    between atoms: _76  and  _79
REMARK   34  A    between atoms: _79  and  _80
REMARK   35  A    between atoms: _83  and  _85
REMARK   36  A    between atoms: _85  and  _86
REMARK   37  A    between atoms: _85  and  _88
REMARK   38  A    between atoms: _88  and  _89
REMARK   39  A    between atoms: _92  and  _94
REMARK   40  A    between atoms: _94  and  _95
REMARK   41  A    between atoms: _94  and  _97
REMARK   42  A    between atoms: _100  and  _102
REMARK   43  A    between atoms: _102  and  _103
REMARK   44  A    between atoms: _102  and  _105
REMARK   45  A    between atoms: _106  and  _107
REMARK   46  A    between atoms: _107  and  _108
REMARK   47  A    between atoms: _108  and  _109
REMARK   48  A    between atoms: _113  and  _115
REMARK   49  A    between atoms: _115  and  _116
REMARK   50  A    between atoms: _115  and  _118
REMARK   51  A    between atoms: _118  and  _119
REMARK   52  A    between atoms: _119  and  _120
REMARK   53  A    between atoms: _122  and  _124
REMARK   54  A    between atoms: _124  and  _125
REMARK   55  A    between atoms: _124  and  _127
REMARK   56  A    between atoms: _127  and  _128
REMARK   57  A    between atoms: _131  and  _133
REMARK   58  A    between atoms: _133  and  _134
REMARK   59  A    between atoms: _136  and  _138
REMARK   60  A    between atoms: _138  and  _139
REMARK   61  A    between atoms: _141  and  _143
REMARK   62  A    between atoms: _143  and  _144
REMARK   63  A    between atoms: _143  and  _146
REMARK   64  A    between atoms: _146  and  _147
REMARK   65  A    between atoms: _150  and  _152
REMARK   66  A    between atoms: _152  and  _153
REMARK   67  A    between atoms: _155  and  _157
REMARK   68  A    between atoms: _157  and  _158
REMARK   69  A    between atoms: _160  and  _162
REMARK   70  A    between atoms: _162  and  _163
REMARK   71  A    between atoms: _162  and  _165
REMARK   72  A    between atoms: _165  and  _166
REMARK   73  A    between atoms: _169  and  _171
REMARK   74  A    between atoms: _171  and  _172
REMARK   75  A    between atoms: _171  and  _174
REMARK   76  A    between atoms: _177  and  _179
REMARK   77  A    between atoms: _179  and  _180
REMARK   78  A    between atoms: _179  and  _182
REMARK   79  A    between atoms: _182  and  _183
REMARK   80  A    between atoms: _187  and  _188
REMARK   81  A    between atoms: _193  and  _195
REMARK   82  A    between atoms: _195  and  _196
REMARK   83  A    between atoms: _195  and  _198
REMARK   84  A    between atoms: _198  and  _199
REMARK   85  A    between atoms: _203  and  _204
REMARK   86  A    between atoms: _209  and  _211
REMARK   87  A    between atoms: _211  and  _212
REMARK   88  A    between atoms: _211  and  _214
REMARK   89  A    between atoms: _217  and  _219
REMARK   90  A    between atoms: _219  and  _220
REMARK   91  A    between atoms: _219  and  _222
REMARK   92  A    between atoms: _222  and  _223
REMARK   93  A    between atoms: _228  and  _230
REMARK   94  A    between atoms: _230  and  _231
REMARK   95  A    between atoms: _230  and  _233
REMARK   96  A    between atoms: _233  and  _234
REMARK   97  A    between atoms: _237  and  _239
REMARK   98  A    between atoms: _239  and  _240
REMARK   99  A    between atoms: _239  and  _242
REMARK  100  A    between atoms: _242  and  _243
REMARK  101  A    between atoms: _246  and  _248
REMARK  102  A    between atoms: _248  and  _249
REMARK  103  A    between atoms: _251  and  _253
REMARK  104  A    between atoms: _253  and  _254
REMARK  105  A    between atoms: _253  and  _256
REMARK  106  A    between atoms: _256  and  _257
REMARK  107  A    between atoms: _257  and  _258
REMARK  108  A    between atoms: _258  and  _259
REMARK  109  A    between atoms: _268  and  _270
REMARK  110  A    between atoms: _270  and  _271
REMARK  111  A    between atoms: _270  and  _273
REMARK  112  A    between atoms: _273  and  _274
REMARK  113  A    between atoms: _279  and  _281
REMARK  114  A    between atoms: _281  and  _282
REMARK  115  A    between atoms: _281  and  _284
REMARK  116  A    between atoms: _284  and  _285
REMARK  117  A    between atoms: _285  and  _286
REMARK  118  A    between atoms: _286  and  _287
REMARK  119  A    between atoms: _296  and  _298
REMARK  120  A    between atoms: _298  and  _299
REMARK  121  A    between atoms: _298  and  _301
REMARK  122  A    between atoms: _301  and  _302
REMARK  123  A    between atoms: _305  and  _307
REMARK  124  A    between atoms: _307  and  _308
REMARK  125  A    between atoms: _307  and  _310
REMARK  126  A    between atoms: _310  and  _311
REMARK  127  A    between atoms: _314  and  _316
REMARK  128  A    between atoms: _316  and  _317
REMARK  129  A    between atoms: _316  and  _319
REMARK  130  A    between atoms: _319  and  _320
REMARK  131  A    between atoms: _323  and  _325
REMARK  132  A    between atoms: _325  and  _326
REMARK  133  A    between atoms: _325  and  _328
REMARK  134  A    between atoms: _328  and  _329
REMARK  135  A    between atoms: _332  and  _334
REMARK  136  A    between atoms: _334  and  _335
REMARK  137  A    between atoms: _337  and  _339
REMARK  138  A    between atoms: _339  and  _340
REMARK  139  A    between atoms: _343  and  _345
REMARK  140  A    between atoms: _345  and  _346
REMARK  141  A    between atoms: _345  and  _348
REMARK  142  A    between atoms: _348  and  _349
REMARK  143  A    between atoms: _352  and  _354
REMARK  144  A    between atoms: _354  and  _355
REMARK  145  A    between atoms: _354  and  _357
REMARK  146  A    between atoms: _357  and  _358
REMARK  147  A    between atoms: _361  and  _363
REMARK  148  A    between atoms: _363  and  _364
REMARK  149  A    between atoms: _363  and  _366
REMARK  150  A    between atoms: _366  and  _367
REMARK  151  A    between atoms: _370  and  _372
REMARK  152  A    between atoms: _372  and  _373
REMARK  153  A    between atoms: _372  and  _375
REMARK  154  A    between atoms: _378  and  _380
REMARK  155  A    between atoms: _380  and  _381
REMARK  156  A    between atoms: _380  and  _383
REMARK  157  A    between atoms: _384  and  _385
REMARK  158  A    between atoms: _385  and  _386
REMARK  159  A    between atoms: _386  and  _387
REMARK  160  A    between atoms: _391  and  _393
REMARK  161  A    between atoms: _393  and  _394
REMARK  162  A    between atoms: _393  and  _396
REMARK  163  A    between atoms: _396  and  _397
REMARK  164  A    between atoms: _397  and  _398
REMARK  165  A    between atoms: _400  and  _402
REMARK  166  A    between atoms: _402  and  _403
REMARK  167  A    between atoms: _402  and  _405
REMARK  168  A    between atoms: _405  and  _406
REMARK  169  A    between atoms: _409  and  _411
REMARK  170  A    between atoms: _411  and  _412
REMARK  171  A    between atoms: _414  and  _416
REMARK  172  A    between atoms: _416  and  _417
REMARK  173  A    between atoms: _419  and  _421
REMARK  174  A    between atoms: _421  and  _422
REMARK  175  A    between atoms: _421  and  _424
REMARK  176  A    between atoms: _424  and  _425
REMARK  177  A    between atoms: _428  and  _430
REMARK  178  A    between atoms: _430  and  _431
REMARK  179  A    between atoms: _433  and  _435
REMARK  180  A    between atoms: _435  and  _436
REMARK  181  A    between atoms: _438  and  _440
REMARK  182  A    between atoms: _440  and  _441
REMARK  183  A    between atoms: _440  and  _443
REMARK  184  A    between atoms: _443  and  _444
REMARK  185  A    between atoms: _450  and  _452
REMARK  186  A    between atoms: _452  and  _453
REMARK  187  A    between atoms: _452  and  _455
REMARK  188  A    between atoms: _455  and  _456
REMARK  189  A    between atoms: _459  and  _461
REMARK  190  A    between atoms: _461  and  _462
REMARK  191  A    between atoms: _461  and  _464
REMARK  192  A    between atoms: _467  and  _469
REMARK  193  A    between atoms: _469  and  _470
REMARK  194  A    between atoms: _469  and  _472
REMARK  195  A    between atoms: _472  and  _473
REMARK  196  A    between atoms: _476  and  _478
REMARK  197  A    between atoms: _478  and  _479
REMARK  198  A    between atoms: _478  and  _481
REMARK  199  A    between atoms: _481  and  _482
REMARK  200  A    between atoms: _486  and  _487
REMARK  201  A    between atoms: _492  and  _494
REMARK  202  A    between atoms: _494  and  _495
REMARK  203  A    between atoms: _494  and  _497
REMARK  204  A    between atoms: _500  and  _502
REMARK  205  A    between atoms: _502  and  _503
REMARK  206  A    between atoms: _502  and  _505
REMARK  207  A    between atoms: _505  and  _506
REMARK  208  A    between atoms: _511  and  _513
REMARK  209  A    between atoms: _513  and  _514
REMARK  210  A    between atoms: _513  and  _516
REMARK  211  A    between atoms: _516  and  _517
REMARK  212  A    between atoms: _520  and  _522
REMARK  213  A    between atoms: _522  and  _523
REMARK  214  A    between atoms: _522  and  _525
REMARK  215  A    between atoms: _525  and  _526
REMARK  216  A    between atoms: _529  and  _531
REMARK  217  A    between atoms: _531  and  _532
REMARK  218  A    between atoms: _534  and  _536
REMARK  219  A    between atoms: _536  and  _537
REMARK  220  A    between atoms: _536  and  _539
REMARK  221  A    between atoms: _539  and  _540
REMARK  222  A    between atoms: _540  and  _541
REMARK  223  A    between atoms: _541  and  _542
REMARK  224  A    between atoms: _551  and  _553
REMARK  225  A    between atoms: _553  and  _554
REMARK  226  A    between atoms: _553  and  _556
REMARK  227  A    between atoms: _556  and  _557
REMARK                            x       y       z     vdW  Elec       q    Type
REMARK                         _______ _______ _______ _____ _____    ______ ____
ROOT
ATOM      1  O   HOH     1       8.092  22.729  12.282  0.00  0.00    +0.000 OA
ENDROOT
TORSDOF 0
REMARK  Name = ../refined-set-2016/3a2o/3a2o_pocket.pdb
REMARK  227 active torsions:
REMARK  status: ('A' for Active; 'I' for Inactive)
REMARK    1  A    between atoms: _1  and  _3
REMARK    2  A    between atoms: _3  and  _4
REMARK    3  A    between atoms: _3  and  _6
REMARK    4  A    between atoms: _6  and  _7
REMARK    5  A    between atoms: _7  and  _8
REMARK    6  A    between atoms: _8  and  _9
REMARK    7  A    between atoms: _18  and  _20
REMARK    8  A    between atoms: _20  and  _21
REMARK    9  A    between atoms: _20  and  _23
REMARK   10  A    between atoms: _23  and  _24
REMARK   11  A    between atoms: _27  and  _29
REMARK   12  A    between atoms: _29  and  _30
REMARK   13  A    between atoms: _29  and  _32
REMARK   14  A    between atoms: _32  and  _33
REMARK   15  A    between atoms: _36  and  _38
REMARK   16  A    between atoms: _38  and  _39
REMARK   17  A    between atoms: _38  and  _41
REMARK   18  A    between atoms: _41  and  _42
REMARK   19  A    between atoms: _45  and  _47
REMARK   20  A    between atoms: _47  and  _48
REMARK   21  A    between atoms: _47  and  _50
REMARK   22  A    between atoms: _50  and  _51
REMARK   23  A    between atoms: _54  and  _56
REMARK   24  A    between atoms: _56  and  _57
REMARK   25  A    between atoms: _59  and  _61
REMARK   26  A    between atoms: _61  and  _62
REMARK   27  A    between atoms: _65  and  _67
REMARK   28  A    between atoms: _67  and  _68
REMARK   29  A    between atoms: _67  and  _70
REMARK   30  A    between atoms: _70  and  _71
REMARK   31  A    between atoms: _74  and  _76
REMARK   32  A    between atoms: _76  and  _77
REMARK   33  A    between atoms: _76  and  _79
REMARK   34  A    between atoms: _79  and  _80
REMARK   35  A    between atoms: _83  and  _85
REMARK   36  A    between atoms: _85  and  _86
REMARK   37  A    between atoms: _85  and  _88
REMARK   38  A    between atoms: _88  and  _89
REMARK   39  A    between atoms: _92  and  _94
REMARK   40  A    between atoms: _94  and  _95
REMARK   41  A    between atoms: _94  and  _97
REMARK   42  A    between atoms: _100  and  _102
REMARK   43  A    between atoms: _102  and  _103
REMARK   44  A    between atoms: _102  and  _105
REMARK   45  A    between atoms: _106  and  _107
REMARK   46  A    between atoms: _107  and  _108
REMARK   47  A    between atoms: _108  and  _109
REMARK   48  A    between atoms: _113  and  _115
REMARK   49  A    between atoms: _115  and  _116
REMARK   50  A    between atoms: _115  and  _118
REMARK   51  A    between atoms: _118  and  _119
REMARK   52  A    between atoms: _119  and  _120
REMARK   53  A    between atoms: _122  and  _124
REMARK   54  A    between atoms: _124  and  _125
REMARK   55  A    between atoms: _124  and  _127
REMARK   56  A    between atoms: _127  and  _128
REMARK   57  A    between atoms: _131  and  _133
REMARK   58  A    between atoms: _133  and  _134
REMARK   59  A    between atoms: _136  and  _138
REMARK   60  A    between atoms: _138  and  _139
REMARK   61  A    between atoms: _141  and  _143
REMARK   62  A    between atoms: _143  and  _144
REMARK   63  A    between atoms: _143  and  _146
REMARK   64  A    between atoms: _146  and  _147
REMARK   65  A    between atoms: _150  and  _152
REMARK   66  A    between atoms: _152  and  _153
REMARK   67  A    between atoms: _155  and  _157
REMARK   68  A    between atoms: _157  and  _158
REMARK   69  A    between atoms: _160  and  _162
REMARK   70  A    between atoms: _162  and  _163
REMARK   71  A    between atoms: _162  and  _165
REMARK   72  A    between atoms: _165  and  _166
REMARK   73  A    between atoms: _169  and  _171
REMARK   74  A    between atoms: _171  and  _172
REMARK   75  A    between atoms: _171  and  _174
REMARK   76  A    between atoms: _177  and  _179
REMARK   77  A    between atoms: _179  and  _180
REMARK   78  A    between atoms: _179  and  _182
REMARK   79  A    between atoms: _182  and  _183
REMARK   80  A    between atoms: _187  and  _188
REMARK   81  A    between atoms: _193  and  _195
REMARK   82  A    between atoms: _195  and  _196
REMARK   83  A    between atoms: _195  and  _198
REMARK   84  A    between atoms: _198  and  _199
REMARK   85  A    between atoms: _203  and  _204
REMARK   86  A    between atoms: _209  and  _211
REMARK   87  A    between atoms: _211  and  _212
REMARK   88  A    between atoms: _211  and  _214
REMARK   89  A    between atoms: _217  and  _219
REMARK   90  A    between atoms: _219  and  _220
REMARK   91  A    between atoms: _219  and  _222
REMARK   92  A    between atoms: _222  and  _223
REMARK   93  A    between atoms: _228  and  _230
REMARK   94  A    between atoms: _230  and  _231
REMARK   95  A    between atoms: _230  and  _233
REMARK   96  A    between atoms: _233  and  _234
REMARK   97  A    between atoms: _237  and  _239
REMARK   98  A    between atoms: _239  and  _240
REMARK   99  A    between atoms: _239  and  _242
REMARK  100  A    between atoms: _242  and  _243
REMARK  101  A    between atoms: _246  and  _248
REMARK  102  A    between atoms: _248  and  _249
REMARK  103  A    between atoms: _251  and  _253
REMARK  104  A    between atoms: _253  and  _254
REMARK  105  A    between atoms: _253  and  _256
REMARK  106  A    between atoms: _256  and  _257
REMARK  107  A    between atoms: _257  and  _258
REMARK  108  A    between atoms: _258  and  _259
REMARK  109  A    between atoms: _268  and  _270
REMARK  110  A    between atoms: _270  and  _271
REMARK  111  A    between atoms: _270  and  _273
REMARK  112  A    between atoms: _273  and  _274
REMARK  113  A    between atoms: _279  and  _281
REMARK  114  A    between atoms: _281  and  _282
REMARK  115  A    between atoms: _281  and  _284
REMARK  116  A    between atoms: _284  and  _285
REMARK  117  A    between atoms: _285  and  _286
REMARK  118  A    between atoms: _286  and  _287
REMARK  119  A    between atoms: _296  and  _298
REMARK  120  A    between atoms: _298  and  _299
REMARK  121  A    between atoms: _298  and  _301
REMARK  122  A    between atoms: _301  and  _302
REMARK  123  A    between atoms: _305  and  _307
REMARK  124  A    between atoms: _307  and  _308
REMARK  125  A    between atoms: _307  and  _310
REMARK  126  A    between atoms: _310  and  _311
REMARK  127  A    between atoms: _314  and  _316
REMARK  128  A    between atoms: _316  and  _317
REMARK  129  A    between atoms: _316  and  _319
REMARK  130  A    between atoms: _319  and  _320
REMARK  131  A    between atoms: _323  and  _325
REMARK  132  A    between atoms: _325  and  _326
REMARK  133  A    between atoms: _325  and  _328
REMARK  134  A    between atoms: _328  and  _329
REMARK  135  A    between atoms: _332  and  _334
REMARK  136  A    between atoms: _334  and  _335
REMARK  137  A    between atoms: _337  and  _339
REMARK  138  A    between atoms: _339  and  _340
REMARK  139  A    between atoms: _343  and  _345
REMARK  140  A    between atoms: _345  and  _346
REMARK  141  A    between atoms: _345  and  _348
REMARK  142  A    between atoms: _348  and  _349
REMARK  143  A    between atoms: _352  and  _354
REMARK  144  A    between atoms: _354  and  _355
REMARK  145  A    between atoms: _354  and  _357
REMARK  146  A    between atoms: _357  and  _358
REMARK  147  A    between atoms: _361  and  _363
REMARK  148  A    between atoms: _363  and  _364
REMARK  149  A    between atoms: _363  and  _366
REMARK  150  A    between atoms: _366  and  _367
REMARK  151  A    between atoms: _370  and  _372
REMARK  152  A    between atoms: _372  and  _373
REMARK  153  A    between atoms: _372  and  _375
REMARK  154  A    between atoms: _378  and  _380
REMARK  155  A    between atoms: _380  and  _381
REMARK  156  A    between atoms: _380  and  _383
REMARK  157  A    between atoms: _384  and  _385
REMARK  158  A    between atoms: _385  and  _386
REMARK  159  A    between atoms: _386  and  _387
REMARK  160  A    between atoms: _391  and  _393
REMARK  161  A    between atoms: _393  and  _394
REMARK  162  A    between atoms: _393  and  _396
REMARK  163  A    between atoms: _396  and  _397
REMARK  164  A    between atoms: _397  and  _398
REMARK  165  A    between atoms: _400  and  _402
REMARK  166  A    between atoms: _402  and  _403
REMARK  167  A    between atoms: _402  and  _405
REMARK  168  A    between atoms: _405  and  _406
REMARK  169  A    between atoms: _409  and  _411
REMARK  170  A    between atoms: _411  and  _412
REMARK  171  A    between atoms: _414  and  _416
REMARK  172  A    between atoms: _416  and  _417
REMARK  173  A    between atoms: _419  and  _421
REMARK  174  A    between atoms: _421  and  _422
REMARK  175  A    between atoms: _421  and  _424
REMARK  176  A    between atoms: _424  and  _425
REMARK  177  A    between atoms: _428  and  _430
REMARK  178  A    between atoms: _430  and  _431
REMARK  179  A    between atoms: _433  and  _435
REMARK  180  A    between atoms: _435  and  _436
REMARK  181  A    between atoms: _438  and  _440
REMARK  182  A    between atoms: _440  and  _441
REMARK  183  A    between atoms: _440  and  _443
REMARK  184  A    between atoms: _443  and  _444
REMARK  185  A    between atoms: _450  and  _452
REMARK  186  A    between atoms: _452  and  _453
REMARK  187  A    between atoms: _452  and  _455
REMARK  188  A    between atoms: _455  and  _456
REMARK  189  A    between atoms: _459  and  _461
REMARK  190  A    between atoms: _461  and  _462
REMARK  191  A    between atoms: _461  and  _464
REMARK  192  A    between atoms: _467  and  _469
REMARK  193  A    between atoms: _469  and  _470
REMARK  194  A    between atoms: _469  and  _472
REMARK  195  A    between atoms: _472  and  _473
REMARK  196  A    between atoms: _476  and  _478
REMARK  197  A    between atoms: _478  and  _479
REMARK  198  A    between atoms: _478  and  _481
REMARK  199  A    between atoms: _481  and  _482
REMARK  200  A    between atoms: _486  and  _487
REMARK  201  A    between atoms: _492  and  _494
REMARK  202  A    between atoms: _494  and  _495
REMARK  203  A    between atoms: _494  and  _497
REMARK  204  A    between atoms: _500  and  _502
REMARK  205  A    between atoms: _502  and  _503
REMARK  206  A    between atoms: _502  and  _505
REMARK  207  A    between atoms: _505  and  _506
REMARK  208  A    between atoms: _511  and  _513
REMARK  209  A    between atoms: _513  and  _514
REMARK  210  A    between atoms: _513  and  _516
REMARK  211  A    between atoms: _516  and  _517
REMARK  212  A    between atoms: _520  and  _522
REMARK  213  A    between atoms: _522  and  _523
REMARK  214  A    between atoms: _522  and  _525
REMARK  215  A    between atoms: _525  and  _526
REMARK  216  A    between atoms: _529  and  _531
REMARK  217  A    between atoms: _531  and  _532
REMARK  218  A    between atoms: _534  and  _536
REMARK  219  A    between atoms: _536  and  _537
REMARK  220  A    between atoms: _536  and  _539
REMARK  221  A    between atoms: _539  and  _540
REMARK  222  A    between atoms: _540  and  _541
REMARK  223  A    between atoms: _541  and  _542
REMARK  224  A    between atoms: _551  and  _553
REMARK  225  A    between atoms: _553  and  _554
REMARK  226  A    between atoms: _553  and  _556
REMARK  227  A    between atoms: _556  and  _557
REMARK                            x       y       z     vdW  Elec       q    Type
REMARK                         _______ _______ _______ _____ _____    ______ ____
ROOT
ATOM      1  O   HOH     1       6.796  20.606   8.890  0.00  0.00    +0.000 OA
ENDROOT
TORSDOF 0
REMARK  Name = ../refined-set-2016/3a2o/3a2o_pocket.pdb
REMARK  227 active torsions:
REMARK  status: ('A' for Active; 'I' for Inactive)
REMARK    1  A    between atoms: _1  and  _3
REMARK    2  A    between atoms: _3  and  _4
REMARK    3  A    between atoms: _3  and  _6
REMARK    4  A    between atoms: _6  and  _7
REMARK    5  A    between atoms: _7  and  _8
REMARK    6  A    between atoms: _8  and  _9
REMARK    7  A    between atoms: _18  and  _20
REMARK    8  A    between atoms: _20  and  _21
REMARK    9  A    between atoms: _20  and  _23
REMARK   10  A    between atoms: _23  and  _24
REMARK   11  A    between atoms: _27  and  _29
REMARK   12  A    between atoms: _29  and  _30
REMARK   13  A    between atoms: _29  and  _32
REMARK   14  A    between atoms: _32  and  _33
REMARK   15  A    between atoms: _36  and  _38
REMARK   16  A    between atoms: _38  and  _39
REMARK   17  A    between atoms: _38  and  _41
REMARK   18  A    between atoms: _41  and  _42
REMARK   19  A    between atoms: _45  and  _47
REMARK   20  A    between atoms: _47  and  _48
REMARK   21  A    between atoms: _47  and  _50
REMARK   22  A    between atoms: _50  and  _51
REMARK   23  A    between atoms: _54  and  _56
REMARK   24  A    between atoms: _56  and  _57
REMARK   25  A    between atoms: _59  and  _61
REMARK   26  A    between atoms: _61  and  _62
REMARK   27  A    between atoms: _65  and  _67
REMARK   28  A    between atoms: _67  and  _68
REMARK   29  A    between atoms: _67  and  _70
REMARK   30  A    between atoms: _70  and  _71
REMARK   31  A    between atoms: _74  and  _76
REMARK   32  A    between atoms: _76  and  _77
REMARK   33  A    between atoms: _76  and  _79
REMARK   34  A    between atoms: _79  and  _80
REMARK   35  A    between atoms: _83  and  _85
REMARK   36  A    between atoms: _85  and  _86
REMARK   37  A    between atoms: _85  and  _88
REMARK   38  A    between atoms: _88  and  _89
REMARK   39  A    between atoms: _92  and  _94
REMARK   40  A    between atoms: _94  and  _95
REMARK   41  A    between atoms: _94  and  _97
REMARK   42  A    between atoms: _100  and  _102
REMARK   43  A    between atoms: _102  and  _103
REMARK   44  A    between atoms: _102  and  _105
REMARK   45  A    between atoms: _106  and  _107
REMARK   46  A    between atoms: _107  and  _108
REMARK   47  A    between atoms: _108  and  _109
REMARK   48  A    between atoms: _113  and  _115
REMARK   49  A    between atoms: _115  and  _116
REMARK   50  A    between atoms: _115  and  _118
REMARK   51  A    between atoms: _118  and  _119
REMARK   52  A    between atoms: _119  and  _120
REMARK   53  A    between atoms: _122  and  _124
REMARK   54  A    between atoms: _124  and  _125
REMARK   55  A    between atoms: _124  and  _127
REMARK   56  A    between atoms: _127  and  _128
REMARK   57  A    between atoms: _131  and  _133
REMARK   58  A    between atoms: _133  and  _134
REMARK   59  A    between atoms: _136  and  _138
REMARK   60  A    between atoms: _138  and  _139
REMARK   61  A    between atoms: _141  and  _143
REMARK   62  A    between atoms: _143  and  _144
REMARK   63  A    between atoms: _143  and  _146
REMARK   64  A    between atoms: _146  and  _147
REMARK   65  A    between atoms: _150  and  _152
REMARK   66  A    between atoms: _152  and  _153
REMARK   67  A    between atoms: _155  and  _157
REMARK   68  A    between atoms: _157  and  _158
REMARK   69  A    between atoms: _160  and  _162
REMARK   70  A    between atoms: _162  and  _163
REMARK   71  A    between atoms: _162  and  _165
REMARK   72  A    between atoms: _165  and  _166
REMARK   73  A    between atoms: _169  and  _171
REMARK   74  A    between atoms: _171  and  _172
REMARK   75  A    between atoms: _171  and  _174
REMARK   76  A    between atoms: _177  and  _179
REMARK   77  A    between atoms: _179  and  _180
REMARK   78  A    between atoms: _179  and  _182
REMARK   79  A    between atoms: _182  and  _183
REMARK   80  A    between atoms: _187  and  _188
REMARK   81  A    between atoms: _193  and  _195
REMARK   82  A    between atoms: _195  and  _196
REMARK   83  A    between atoms: _195  and  _198
REMARK   84  A    between atoms: _198  and  _199
REMARK   85  A    between atoms: _203  and  _204
REMARK   86  A    between atoms: _209  and  _211
REMARK   87  A    between atoms: _211  and  _212
REMARK   88  A    between atoms: _211  and  _214
REMARK   89  A    between atoms: _217  and  _219
REMARK   90  A    between atoms: _219  and  _220
REMARK   91  A    between atoms: _219  and  _222
REMARK   92  A    between atoms: _222  and  _223
REMARK   93  A    between atoms: _228  and  _230
REMARK   94  A    between atoms: _230  and  _231
REMARK   95  A    between atoms: _230  and  _233
REMARK   96  A    between atoms: _233  and  _234
REMARK   97  A    between atoms: _237  and  _239
REMARK   98  A    between atoms: _239  and  _240
REMARK   99  A    between atoms: _239  and  _242
REMARK  100  A    between atoms: _242  and  _243
REMARK  101  A    between atoms: _246  and  _248
REMARK  102  A    between atoms: _248  and  _249
REMARK  103  A    between atoms: _251  and  _253
REMARK  104  A    between atoms: _253  and  _254
REMARK  105  A    between atoms: _253  and  _256
REMARK  106  A    between atoms: _256  and  _257
REMARK  107  A    between atoms: _257  and  _258
REMARK  108  A    between atoms: _258  and  _259
REMARK  109  A    between atoms: _268  and  _270
REMARK  110  A    between atoms: _270  and  _271
REMARK  111  A    between atoms: _270  and  _273
REMARK  112  A    between atoms: _273  and  _274
REMARK  113  A    between atoms: _279  and  _281
REMARK  114  A    between atoms: _281  and  _282
REMARK  115  A    between atoms: _281  and  _284
REMARK  116  A    between atoms: _284  and  _285
REMARK  117  A    between atoms: _285  and  _286
REMARK  118  A    between atoms: _286  and  _287
REMARK  119  A    between atoms: _296  and  _298
REMARK  120  A    between atoms: _298  and  _299
REMARK  121  A    between atoms: _298  and  _301
REMARK  122  A    between atoms: _301  and  _302
REMARK  123  A    between atoms: _305  and  _307
REMARK  124  A    between atoms: _307  and  _308
REMARK  125  A    between atoms: _307  and  _310
REMARK  126  A    between atoms: _310  and  _311
REMARK  127  A    between atoms: _314  and  _316
REMARK  128  A    between atoms: _316  and  _317
REMARK  129  A    between atoms: _316  and  _319
REMARK  130  A    between atoms: _319  and  _320
REMARK  131  A    between atoms: _323  and  _325
REMARK  132  A    between atoms: _325  and  _326
REMARK  133  A    between atoms: _325  and  _328
REMARK  134  A    between atoms: _328  and  _329
REMARK  135  A    between atoms: _332  and  _334
REMARK  136  A    between atoms: _334  and  _335
REMARK  137  A    between atoms: _337  and  _339
REMARK  138  A    between atoms: _339  and  _340
REMARK  139  A    between atoms: _343  and  _345
REMARK  140  A    between atoms: _345  and  _346
REMARK  141  A    between atoms: _345  and  _348
REMARK  142  A    between atoms: _348  and  _349
REMARK  143  A    between atoms: _352  and  _354
REMARK  144  A    between atoms: _354  and  _355
REMARK  145  A    between atoms: _354  and  _357
REMARK  146  A    between atoms: _357  and  _358
REMARK  147  A    between atoms: _361  and  _363
REMARK  148  A    between atoms: _363  and  _364
REMARK  149  A    between atoms: _363  and  _366
REMARK  150  A    between atoms: _366  and  _367
REMARK  151  A    between atoms: _370  and  _372
REMARK  152  A    between atoms: _372  and  _373
REMARK  153  A    between atoms: _372  and  _375
REMARK  154  A    between atoms: _378  and  _380
REMARK  155  A    between atoms: _380  and  _381
REMARK  156  A    between atoms: _380  and  _383
REMARK  157  A    between atoms: _384  and  _385
REMARK  158  A    between atoms: _385  and  _386
REMARK  159  A    between atoms: _386  and  _387
REMARK  160  A    between atoms: _391  and  _393
REMARK  161  A    between atoms: _393  and  _394
REMARK  162  A    between atoms: _393  and  _396
REMARK  163  A    between atoms: _396  and  _397
REMARK  164  A    between atoms: _397  and  _398
REMARK  165  A    between atoms: _400  and  _402
REMARK  166  A    between atoms: _402  and  _403
REMARK  167  A    between atoms: _402  and  _405
REMARK  168  A    between atoms: _405  and  _406
REMARK  169  A    between atoms: _409  and  _411
REMARK  170  A    between atoms: _411  and  _412
REMARK  171  A    between atoms: _414  and  _416
REMARK  172  A    between atoms: _416  and  _417
REMARK  173  A    between atoms: _419  and  _421
REMARK  174  A    between atoms: _421  and  _422
REMARK  175  A    between atoms: _421  and  _424
REMARK  176  A    between atoms: _424  and  _425
REMARK  177  A    between atoms: _428  and  _430
REMARK  178  A    between atoms: _430  and  _431
REMARK  179  A    between atoms: _433  and  _435
REMARK  180  A    between atoms: _435  and  _436
REMARK  181  A    between atoms: _438  and  _440
REMARK  182  A    between atoms: _440  and  _441
REMARK  183  A    between atoms: _440  and  _443
REMARK  184  A    between atoms: _443  and  _444
REMARK  185  A    between atoms: _450  and  _452
REMARK  186  A    between atoms: _452  and  _453
REMARK  187  A    between atoms: _452  and  _455
REMARK  188  A    between atoms: _455  and  _456
REMARK  189  A    between atoms: _459  and  _461
REMARK  190  A    between atoms: _461  and  _462
REMARK  191  A    between atoms: _461  and  _464
REMARK  192  A    between atoms: _467  and  _469
REMARK  193  A    between atoms: _469  and  _470
REMARK  194  A    between atoms: _469  and  _472
REMARK  195  A    between atoms: _472  and  _473
REMARK  196  A    between atoms: _476  and  _478
REMARK  197  A    between atoms: _478  and  _479
REMARK  198  A    between atoms: _478  and  _481
REMARK  199  A    between atoms: _481  and  _482
REMARK  200  A    between atoms: _486  and  _487
REMARK  201  A    between atoms: _492  and  _494
REMARK  202  A    between atoms: _494  and  _495
REMARK  203  A    between atoms: _494  and  _497
REMARK  204  A    between atoms: _500  and  _502
REMARK  205  A    between atoms: _502  and  _503
REMARK  206  A    between atoms: _502  and  _505
REMARK  207  A    between atoms: _505  and  _506
REMARK  208  A    between atoms: _511  and  _513
REMARK  209  A    between atoms: _513  and  _514
REMARK  210  A    between atoms: _513  and  _516
REMARK  211  A    between atoms: _516  and  _517
REMARK  212  A    between atoms: _520  and  _522
REMARK  213  A    between atoms: _522  and  _523
REMARK  214  A    between atoms: _522  and  _525
REMARK  215  A    between atoms: _525  and  _526
REMARK  216  A    between atoms: _529  and  _531
REMARK  217  A    between atoms: _531  and  _532
REMARK  218  A    between atoms: _534  and  _536
REMARK  219  A    between atoms: _536  and  _537
REMARK  220  A    between atoms: _536  and  _539
REMARK  221  A    between atoms: _539  and  _540
REMARK  222  A    between atoms: _540  and  _541
REMARK  223  A    between atoms: _541  and  _542
REMARK  224  A    between atoms: _551  and  _553
REMARK  225  A    between atoms: _553  and  _554
REMARK  226  A    between atoms: _553  and  _556
REMARK  227  A    between atoms: _556  and  _557
REMARK                            x       y       z     vdW  Elec       q    Type
REMARK                         _______ _______ _______ _____ _____    ______ ____
ROOT
ATOM      1  O   HOH     1      22.774  15.186  19.680  0.00  0.00    +0.000 OA
ENDROOT
TORSDOF 0
REMARK  Name = ../refined-set-2016/3a2o/3a2o_pocket.pdb
REMARK  227 active torsions:
REMARK  status: ('A' for Active; 'I' for Inactive)
REMARK    1  A    between atoms: _1  and  _3
REMARK    2  A    between atoms: _3  and  _4
REMARK    3  A    between atoms: _3  and  _6
REMARK    4  A    between atoms: _6  and  _7
REMARK    5  A    between atoms: _7  and  _8
REMARK    6  A    between atoms: _8  and  _9
REMARK    7  A    between atoms: _18  and  _20
REMARK    8  A    between atoms: _20  and  _21
REMARK    9  A    between atoms: _20  and  _23
REMARK   10  A    between atoms: _23  and  _24
REMARK   11  A    between atoms: _27  and  _29
REMARK   12  A    between atoms: _29  and  _30
REMARK   13  A    between atoms: _29  and  _32
REMARK   14  A    between atoms: _32  and  _33
REMARK   15  A    between atoms: _36  and  _38
REMARK   16  A    between atoms: _38  and  _39
REMARK   17  A    between atoms: _38  and  _41
REMARK   18  A    between atoms: _41  and  _42
REMARK   19  A    between atoms: _45  and  _47
REMARK   20  A    between atoms: _47  and  _48
REMARK   21  A    between atoms: _47  and  _50
REMARK   22  A    between atoms: _50  and  _51
REMARK   23  A    between atoms: _54  and  _56
REMARK   24  A    between atoms: _56  and  _57
REMARK   25  A    between atoms: _59  and  _61
REMARK   26  A    between atoms: _61  and  _62
REMARK   27  A    between atoms: _65  and  _67
REMARK   28  A    between atoms: _67  and  _68
REMARK   29  A    between atoms: _67  and  _70
REMARK   30  A    between atoms: _70  and  _71
REMARK   31  A    between atoms: _74  and  _76
REMARK   32  A    between atoms: _76  and  _77
REMARK   33  A    between atoms: _76  and  _79
REMARK   34  A    between atoms: _79  and  _80
REMARK   35  A    between atoms: _83  and  _85
REMARK   36  A    between atoms: _85  and  _86
REMARK   37  A    between atoms: _85  and  _88
REMARK   38  A    between atoms: _88  and  _89
REMARK   39  A    between atoms: _92  and  _94
REMARK   40  A    between atoms: _94  and  _95
REMARK   41  A    between atoms: _94  and  _97
REMARK   42  A    between atoms: _100  and  _102
REMARK   43  A    between atoms: _102  and  _103
REMARK   44  A    between atoms: _102  and  _105
REMARK   45  A    between atoms: _106  and  _107
REMARK   46  A    between atoms: _107  and  _108
REMARK   47  A    between atoms: _108  and  _109
REMARK   48  A    between atoms: _113  and  _115
REMARK   49  A    between atoms: _115  and  _116
REMARK   50  A    between atoms: _115  and  _118
REMARK   51  A    between atoms: _118  and  _119
REMARK   52  A    between atoms: _119  and  _120
REMARK   53  A    between atoms: _122  and  _124
REMARK   54  A    between atoms: _124  and  _125
REMARK   55  A    between atoms: _124  and  _127
REMARK   56  A    between atoms: _127  and  _128
REMARK   57  A    between atoms: _131  and  _133
REMARK   58  A    between atoms: _133  and  _134
REMARK   59  A    between atoms: _136  and  _138
REMARK   60  A    between atoms: _138  and  _139
REMARK   61  A    between atoms: _141  and  _143
REMARK   62  A    between atoms: _143  and  _144
REMARK   63  A    between atoms: _143  and  _146
REMARK   64  A    between atoms: _146  and  _147
REMARK   65  A    between atoms: _150  and  _152
REMARK   66  A    between atoms: _152  and  _153
REMARK   67  A    between atoms: _155  and  _157
REMARK   68  A    between atoms: _157  and  _158
REMARK   69  A    between atoms: _160  and  _162
REMARK   70  A    between atoms: _162  and  _163
REMARK   71  A    between atoms: _162  and  _165
REMARK   72  A    between atoms: _165  and  _166
REMARK   73  A    between atoms: _169  and  _171
REMARK   74  A    between atoms: _171  and  _172
REMARK   75  A    between atoms: _171  and  _174
REMARK   76  A    between atoms: _177  and  _179
REMARK   77  A    between atoms: _179  and  _180
REMARK   78  A    between atoms: _179  and  _182
REMARK   79  A    between atoms: _182  and  _183
REMARK   80  A    between atoms: _187  and  _188
REMARK   81  A    between atoms: _193  and  _195
REMARK   82  A    between atoms: _195  and  _196
REMARK   83  A    between atoms: _195  and  _198
REMARK   84  A    between atoms: _198  and  _199
REMARK   85  A    between atoms: _203  and  _204
REMARK   86  A    between atoms: _209  and  _211
REMARK   87  A    between atoms: _211  and  _212
REMARK   88  A    between atoms: _211  and  _214
REMARK   89  A    between atoms: _217  and  _219
REMARK   90  A    between atoms: _219  and  _220
REMARK   91  A    between atoms: _219  and  _222
REMARK   92  A    between atoms: _222  and  _223
REMARK   93  A    between atoms: _228  and  _230
REMARK   94  A    between atoms: _230  and  _231
REMARK   95  A    between atoms: _230  and  _233
REMARK   96  A    between atoms: _233  and  _234
REMARK   97  A    between atoms: _237  and  _239
REMARK   98  A    between atoms: _239  and  _240
REMARK   99  A    between atoms: _239  and  _242
REMARK  100  A    between atoms: _242  and  _243
REMARK  101  A    between atoms: _246  and  _248
REMARK  102  A    between atoms: _248  and  _249
REMARK  103  A    between atoms: _251  and  _253
REMARK  104  A    between atoms: _253  and  _254
REMARK  105  A    between atoms: _253  and  _256
REMARK  106  A    between atoms: _256  and  _257
REMARK  107  A    between atoms: _257  and  _258
REMARK  108  A    between atoms: _258  and  _259
REMARK  109  A    between atoms: _268  and  _270
REMARK  110  A    between atoms: _270  and  _271
REMARK  111  A    between atoms: _270  and  _273
REMARK  112  A    between atoms: _273  and  _274
REMARK  113  A    between atoms: _279  and  _281
REMARK  114  A    between atoms: _281  and  _282
REMARK  115  A    between atoms: _281  and  _284
REMARK  116  A    between atoms: _284  and  _285
REMARK  117  A    between atoms: _285  and  _286
REMARK  118  A    between atoms: _286  and  _287
REMARK  119  A    between atoms: _296  and  _298
REMARK  120  A    between atoms: _298  and  _299
REMARK  121  A    between atoms: _298  and  _301
REMARK  122  A    between atoms: _301  and  _302
REMARK  123  A    between atoms: _305  and  _307
REMARK  124  A    between atoms: _307  and  _308
REMARK  125  A    between atoms: _307  and  _310
REMARK  126  A    between atoms: _310  and  _311
REMARK  127  A    between atoms: _314  and  _316
REMARK  128  A    between atoms: _316  and  _317
REMARK  129  A    between atoms: _316  and  _319
REMARK  130  A    between atoms: _319  and  _320
REMARK  131  A    between atoms: _323  and  _325
REMARK  132  A    between atoms: _325  and  _326
REMARK  133  A    between atoms: _325  and  _328
REMARK  134  A    between atoms: _328  and  _329
REMARK  135  A    between atoms: _332  and  _334
REMARK  136  A    between atoms: _334  and  _335
REMARK  137  A    between atoms: _337  and  _339
REMARK  138  A    between atoms: _339  and  _340
REMARK  139  A    between atoms: _343  and  _345
REMARK  140  A    between atoms: _345  and  _346
REMARK  141  A    between atoms: _345  and  _348
REMARK  142  A    between atoms: _348  and  _349
REMARK  143  A    between atoms: _352  and  _354
REMARK  144  A    between atoms: _354  and  _355
REMARK  145  A    between atoms: _354  and  _357
REMARK  146  A    between atoms: _357  and  _358
REMARK  147  A    between atoms: _361  and  _363
REMARK  148  A    between atoms: _363  and  _364
REMARK  149  A    between atoms: _363  and  _366
REMARK  150  A    between atoms: _366  and  _367
REMARK  151  A    between atoms: _370  and  _372
REMARK  152  A    between atoms: _372  and  _373
REMARK  153  A    between atoms: _372  and  _375
REMARK  154  A    between atoms: _378  and  _380
REMARK  155  A    between atoms: _380  and  _381
REMARK  156  A    between atoms: _380  and  _383
REMARK  157  A    between atoms: _384  and  _385
REMARK  158  A    between atoms: _385  and  _386
REMARK  159  A    between atoms: _386  and  _387
REMARK  160  A    between atoms: _391  and  _393
REMARK  161  A    between atoms: _393  and  _394
REMARK  162  A    between atoms: _393  and  _396
REMARK  163  A    between atoms: _396  and  _397
REMARK  164  A    between atoms: _397  and  _398
REMARK  165  A    between atoms: _400  and  _402
REMARK  166  A    between atoms: _402  and  _403
REMARK  167  A    between atoms: _402  and  _405
REMARK  168  A    between atoms: _405  and  _406
REMARK  169  A    between atoms: _409  and  _411
REMARK  170  A    between atoms: _411  and  _412
REMARK  171  A    between atoms: _414  and  _416
REMARK  172  A    between atoms: _416  and  _417
REMARK  173  A    between atoms: _419  and  _421
REMARK  174  A    between atoms: _421  and  _422
REMARK  175  A    between atoms: _421  and  _424
REMARK  176  A    between atoms: _424  and  _425
REMARK  177  A    between atoms: _428  and  _430
REMARK  178  A    between atoms: _430  and  _431
REMARK  179  A    between atoms: _433  and  _435
REMARK  180  A    between atoms: _435  and  _436
REMARK  181  A    between atoms: _438  and  _440
REMARK  182  A    between atoms: _440  and  _441
REMARK  183  A    between atoms: _440  and  _443
REMARK  184  A    between atoms: _443  and  _444
REMARK  185  A    between atoms: _450  and  _452
REMARK  186  A    between atoms: _452  and  _453
REMARK  187  A    between atoms: _452  and  _455
REMARK  188  A    between atoms: _455  and  _456
REMARK  189  A    between atoms: _459  and  _461
REMARK  190  A    between atoms: _461  and  _462
REMARK  191  A    between atoms: _461  and  _464
REMARK  192  A    between atoms: _467  and  _469
REMARK  193  A    between atoms: _469  and  _470
REMARK  194  A    between atoms: _469  and  _472
REMARK  195  A    between atoms: _472  and  _473
REMARK  196  A    between atoms: _476  and  _478
REMARK  197  A    between atoms: _478  and  _479
REMARK  198  A    between atoms: _478  and  _481
REMARK  199  A    between atoms: _481  and  _482
REMARK  200  A    between atoms: _486  and  _487
REMARK  201  A    between atoms: _492  and  _494
REMARK  202  A    between atoms: _494  and  _495
REMARK  203  A    between atoms: _494  and  _497
REMARK  204  A    between atoms: _500  and  _502
REMARK  205  A    between atoms: _502  and  _503
REMARK  206  A    between atoms: _502  and  _505
REMARK  207  A    between atoms: _505  and  _506
REMARK  208  A    between atoms: _511  and  _513
REMARK  209  A    between atoms: _513  and  _514
REMARK  210  A    between atoms: _513  and  _516
REMARK  211  A    between atoms: _516  and  _517
REMARK  212  A    between atoms: _520  and  _522
REMARK  213  A    between atoms: _522  and  _523
REMARK  214  A    between atoms: _522  and  _525
REMARK  215  A    between atoms: _525  and  _526
REMARK  216  A    between atoms: _529  and  _531
REMARK  217  A    between atoms: _531  and  _532
REMARK  218  A    between atoms: _534  and  _536
REMARK  219  A    between atoms: _536  and  _537
REMARK  220  A    between atoms: _536  and  _539
REMARK  221  A    between atoms: _539  and  _540
REMARK  222  A    between atoms: _540  and  _541
REMARK  223  A    between atoms: _541  and  _542
REMARK  224  A    between atoms: _551  and  _553
REMARK  225  A    between atoms: _553  and  _554
REMARK  226  A    between atoms: _553  and  _556
REMARK  227  A    between atoms: _556  and  _557
REMARK                            x       y       z     vdW  Elec       q    Type
REMARK                         _______ _______ _______ _____ _____    ______ ____
ROOT
ATOM      1  O   HOH     1       7.561  23.750  18.303  0.00  0.00    +0.000 OA
ENDROOT
TORSDOF 0
REMARK  Name = ../refined-set-2016/3a2o/3a2o_pocket.pdb
REMARK  227 active torsions:
REMARK  status: ('A' for Active; 'I' for Inactive)
REMARK    1  A    between atoms: _1  and  _3
REMARK    2  A    between atoms: _3  and  _4
REMARK    3  A    between atoms: _3  and  _6
REMARK    4  A    between atoms: _6  and  _7
REMARK    5  A    between atoms: _7  and  _8
REMARK    6  A    between atoms: _8  and  _9
REMARK    7  A    between atoms: _18  and  _20
REMARK    8  A    between atoms: _20  and  _21
REMARK    9  A    between atoms: _20  and  _23
REMARK   10  A    between atoms: _23  and  _24
REMARK   11  A    between atoms: _27  and  _29
REMARK   12  A    between atoms: _29  and  _30
REMARK   13  A    between atoms: _29  and  _32
REMARK   14  A    between atoms: _32  and  _33
REMARK   15  A    between atoms: _36  and  _38
REMARK   16  A    between atoms: _38  and  _39
REMARK   17  A    between atoms: _38  and  _41
REMARK   18  A    between atoms: _41  and  _42
REMARK   19  A    between atoms: _45  and  _47
REMARK   20  A    between atoms: _47  and  _48
REMARK   21  A    between atoms: _47  and  _50
REMARK   22  A    between atoms: _50  and  _51
REMARK   23  A    between atoms: _54  and  _56
REMARK   24  A    between atoms: _56  and  _57
REMARK   25  A    between atoms: _59  and  _61
REMARK   26  A    between atoms: _61  and  _62
REMARK   27  A    between atoms: _65  and  _67
REMARK   28  A    between atoms: _67  and  _68
REMARK   29  A    between atoms: _67  and  _70
REMARK   30  A    between atoms: _70  and  _71
REMARK   31  A    between atoms: _74  and  _76
REMARK   32  A    between atoms: _76  and  _77
REMARK   33  A    between atoms: _76  and  _79
REMARK   34  A    between atoms: _79  and  _80
REMARK   35  A    between atoms: _83  and  _85
REMARK   36  A    between atoms: _85  and  _86
REMARK   37  A    between atoms: _85  and  _88
REMARK   38  A    between atoms: _88  and  _89
REMARK   39  A    between atoms: _92  and  _94
REMARK   40  A    between atoms: _94  and  _95
REMARK   41  A    between atoms: _94  and  _97
REMARK   42  A    between atoms: _100  and  _102
REMARK   43  A    between atoms: _102  and  _103
REMARK   44  A    between atoms: _102  and  _105
REMARK   45  A    between atoms: _106  and  _107
REMARK   46  A    between atoms: _107  and  _108
REMARK   47  A    between atoms: _108  and  _109
REMARK   48  A    between atoms: _113  and  _115
REMARK   49  A    between atoms: _115  and  _116
REMARK   50  A    between atoms: _115  and  _118
REMARK   51  A    between atoms: _118  and  _119
REMARK   52  A    between atoms: _119  and  _120
REMARK   53  A    between atoms: _122  and  _124
REMARK   54  A    between atoms: _124  and  _125
REMARK   55  A    between atoms: _124  and  _127
REMARK   56  A    between atoms: _127  and  _128
REMARK   57  A    between atoms: _131  and  _133
REMARK   58  A    between atoms: _133  and  _134
REMARK   59  A    between atoms: _136  and  _138
REMARK   60  A    between atoms: _138  and  _139
REMARK   61  A    between atoms: _141  and  _143
REMARK   62  A    between atoms: _143  and  _144
REMARK   63  A    between atoms: _143  and  _146
REMARK   64  A    between atoms: _146  and  _147
REMARK   65  A    between atoms: _150  and  _152
REMARK   66  A    between atoms: _152  and  _153
REMARK   67  A    between atoms: _155  and  _157
REMARK   68  A    between atoms: _157  and  _158
REMARK   69  A    between atoms: _160  and  _162
REMARK   70  A    between atoms: _162  and  _163
REMARK   71  A    between atoms: _162  and  _165
REMARK   72  A    between atoms: _165  and  _166
REMARK   73  A    between atoms: _169  and  _171
REMARK   74  A    between atoms: _171  and  _172
REMARK   75  A    between atoms: _171  and  _174
REMARK   76  A    between atoms: _177  and  _179
REMARK   77  A    between atoms: _179  and  _180
REMARK   78  A    between atoms: _179  and  _182
REMARK   79  A    between atoms: _182  and  _183
REMARK   80  A    between atoms: _187  and  _188
REMARK   81  A    between atoms: _193  and  _195
REMARK   82  A    between atoms: _195  and  _196
REMARK   83  A    between atoms: _195  and  _198
REMARK   84  A    between atoms: _198  and  _199
REMARK   85  A    between atoms: _203  and  _204
REMARK   86  A    between atoms: _209  and  _211
REMARK   87  A    between atoms: _211  and  _212
REMARK   88  A    between atoms: _211  and  _214
REMARK   89  A    between atoms: _217  and  _219
REMARK   90  A    between atoms: _219  and  _220
REMARK   91  A    between atoms: _219  and  _222
REMARK   92  A    between atoms: _222  and  _223
REMARK   93  A    between atoms: _228  and  _230
REMARK   94  A    between atoms: _230  and  _231
REMARK   95  A    between atoms: _230  and  _233
REMARK   96  A    between atoms: _233  and  _234
REMARK   97  A    between atoms: _237  and  _239
REMARK   98  A    between atoms: _239  and  _240
REMARK   99  A    between atoms: _239  and  _242
REMARK  100  A    between atoms: _242  and  _243
REMARK  101  A    between atoms: _246  and  _248
REMARK  102  A    between atoms: _248  and  _249
REMARK  103  A    between atoms: _251  and  _253
REMARK  104  A    between atoms: _253  and  _254
REMARK  105  A    between atoms: _253  and  _256
REMARK  106  A    between atoms: _256  and  _257
REMARK  107  A    between atoms: _257  and  _258
REMARK  108  A    between atoms: _258  and  _259
REMARK  109  A    between atoms: _268  and  _270
REMARK  110  A    between atoms: _270  and  _271
REMARK  111  A    between atoms: _270  and  _273
REMARK  112  A    between atoms: _273  and  _274
REMARK  113  A    between atoms: _279  and  _281
REMARK  114  A    between atoms: _281  and  _282
REMARK  115  A    between atoms: _281  and  _284
REMARK  116  A    between atoms: _284  and  _285
REMARK  117  A    between atoms: _285  and  _286
REMARK  118  A    between atoms: _286  and  _287
REMARK  119  A    between atoms: _296  and  _298
REMARK  120  A    between atoms: _298  and  _299
REMARK  121  A    between atoms: _298  and  _301
REMARK  122  A    between atoms: _301  and  _302
REMARK  123  A    between atoms: _305  and  _307
REMARK  124  A    between atoms: _307  and  _308
REMARK  125  A    between atoms: _307  and  _310
REMARK  126  A    between atoms: _310  and  _311
REMARK  127  A    between atoms: _314  and  _316
REMARK  128  A    between atoms: _316  and  _317
REMARK  129  A    between atoms: _316  and  _319
REMARK  130  A    between atoms: _319  and  _320
REMARK  131  A    between atoms: _323  and  _325
REMARK  132  A    between atoms: _325  and  _326
REMARK  133  A    between atoms: _325  and  _328
REMARK  134  A    between atoms: _328  and  _329
REMARK  135  A    between atoms: _332  and  _334
REMARK  136  A    between atoms: _334  and  _335
REMARK  137  A    between atoms: _337  and  _339
REMARK  138  A    between atoms: _339  and  _340
REMARK  139  A    between atoms: _343  and  _345
REMARK  140  A    between atoms: _345  and  _346
REMARK  141  A    between atoms: _345  and  _348
REMARK  142  A    between atoms: _348  and  _349
REMARK  143  A    between atoms: _352  and  _354
REMARK  144  A    between atoms: _354  and  _355
REMARK  145  A    between atoms: _354  and  _357
REMARK  146  A    between atoms: _357  and  _358
REMARK  147  A    between atoms: _361  and  _363
REMARK  148  A    between atoms: _363  and  _364
REMARK  149  A    between atoms: _363  and  _366
REMARK  150  A    between atoms: _366  and  _367
REMARK  151  A    between atoms: _370  and  _372
REMARK  152  A    between atoms: _372  and  _373
REMARK  153  A    between atoms: _372  and  _375
REMARK  154  A    between atoms: _378  and  _380
REMARK  155  A    between atoms: _380  and  _381
REMARK  156  A    between atoms: _380  and  _383
REMARK  157  A    between atoms: _384  and  _385
REMARK  158  A    between atoms: _385  and  _386
REMARK  159  A    between atoms: _386  and  _387
REMARK  160  A    between atoms: _391  and  _393
REMARK  161  A    between atoms: _393  and  _394
REMARK  162  A    between atoms: _393  and  _396
REMARK  163  A    between atoms: _396  and  _397
REMARK  164  A    between atoms: _397  and  _398
REMARK  165  A    between atoms: _400  and  _402
REMARK  166  A    between atoms: _402  and  _403
REMARK  167  A    between atoms: _402  and  _405
REMARK  168  A    between atoms: _405  and  _406
REMARK  169  A    between atoms: _409  and  _411
REMARK  170  A    between atoms: _411  and  _412
REMARK  171  A    between atoms: _414  and  _416
REMARK  172  A    between atoms: _416  and  _417
REMARK  173  A    between atoms: _419  and  _421
REMARK  174  A    between atoms: _421  and  _422
REMARK  175  A    between atoms: _421  and  _424
REMARK  176  A    between atoms: _424  and  _425
REMARK  177  A    between atoms: _428  and  _430
REMARK  178  A    between atoms: _430  and  _431
REMARK  179  A    between atoms: _433  and  _435
REMARK  180  A    between atoms: _435  and  _436
REMARK  181  A    between atoms: _438  and  _440
REMARK  182  A    between atoms: _440  and  _441
REMARK  183  A    between atoms: _440  and  _443
REMARK  184  A    between atoms: _443  and  _444
REMARK  185  A    between atoms: _450  and  _452
REMARK  186  A    between atoms: _452  and  _453
REMARK  187  A    between atoms: _452  and  _455
REMARK  188  A    between atoms: _455  and  _456
REMARK  189  A    between atoms: _459  and  _461
REMARK  190  A    between atoms: _461  and  _462
REMARK  191  A    between atoms: _461  and  _464
REMARK  192  A    between atoms: _467  and  _469
REMARK  193  A    between atoms: _469  and  _470
REMARK  194  A    between atoms: _469  and  _472
REMARK  195  A    between atoms: _472  and  _473
REMARK  196  A    between atoms: _476  and  _478
REMARK  197  A    between atoms: _478  and  _479
REMARK  198  A    between atoms: _478  and  _481
REMARK  199  A    between atoms: _481  and  _482
REMARK  200  A    between atoms: _486  and  _487
REMARK  201  A    between atoms: _492  and  _494
REMARK  202  A    between atoms: _494  and  _495
REMARK  203  A    between atoms: _494  and  _497
REMARK  204  A    between atoms: _500  and  _502
REMARK  205  A    between atoms: _502  and  _503
REMARK  206  A    between atoms: _502  and  _505
REMARK  207  A    between atoms: _505  and  _506
REMARK  208  A    between atoms: _511  and  _513
REMARK  209  A    between atoms: _513  and  _514
REMARK  210  A    between atoms: _513  and  _516
REMARK  211  A    between atoms: _516  and  _517
REMARK  212  A    between atoms: _520  and  _522
REMARK  213  A    between atoms: _522  and  _523
REMARK  214  A    between atoms: _522  and  _525
REMARK  215  A    between atoms: _525  and  _526
REMARK  216  A    between atoms: _529  and  _531
REMARK  217  A    between atoms: _531  and  _532
REMARK  218  A    between atoms: _534  and  _536
REMARK  219  A    between atoms: _536  and  _537
REMARK  220  A    between atoms: _536  and  _539
REMARK  221  A    between atoms: _539  and  _540
REMARK  222  A    between atoms: _540  and  _541
REMARK  223  A    between atoms: _541  and  _542
REMARK  224  A    between atoms: _551  and  _553
REMARK  225  A    between atoms: _553  and  _554
REMARK  226  A    between atoms: _553  and  _556
REMARK  227  A    between atoms: _556  and  _557
REMARK                            x       y       z     vdW  Elec       q    Type
REMARK                         _______ _______ _______ _____ _____    ______ ____
ROOT
ATOM      1  O   HOH     1       8.930  21.767  16.828  0.00  0.00    +0.000 OA
ENDROOT
TORSDOF 0
REMARK  Name = ../refined-set-2016/3a2o/3a2o_pocket.pdb
REMARK  227 active torsions:
REMARK  status: ('A' for Active; 'I' for Inactive)
REMARK    1  A    between atoms: _1  and  _3
REMARK    2  A    between atoms: _3  and  _4
REMARK    3  A    between atoms: _3  and  _6
REMARK    4  A    between atoms: _6  and  _7
REMARK    5  A    between atoms: _7  and  _8
REMARK    6  A    between atoms: _8  and  _9
REMARK    7  A    between atoms: _18  and  _20
REMARK    8  A    between atoms: _20  and  _21
REMARK    9  A    between atoms: _20  and  _23
REMARK   10  A    between atoms: _23  and  _24
REMARK   11  A    between atoms: _27  and  _29
REMARK   12  A    between atoms: _29  and  _30
REMARK   13  A    between atoms: _29  and  _32
REMARK   14  A    between atoms: _32  and  _33
REMARK   15  A    between atoms: _36  and  _38
REMARK   16  A    between atoms: _38  and  _39
REMARK   17  A    between atoms: _38  and  _41
REMARK   18  A    between atoms: _41  and  _42
REMARK   19  A    between atoms: _45  and  _47
REMARK   20  A    between atoms: _47  and  _48
REMARK   21  A    between atoms: _47  and  _50
REMARK   22  A    between atoms: _50  and  _51
REMARK   23  A    between atoms: _54  and  _56
REMARK   24  A    between atoms: _56  and  _57
REMARK   25  A    between atoms: _59  and  _61
REMARK   26  A    between atoms: _61  and  _62
REMARK   27  A    between atoms: _65  and  _67
REMARK   28  A    between atoms: _67  and  _68
REMARK   29  A    between atoms: _67  and  _70
REMARK   30  A    between atoms: _70  and  _71
REMARK   31  A    between atoms: _74  and  _76
REMARK   32  A    between atoms: _76  and  _77
REMARK   33  A    between atoms: _76  and  _79
REMARK   34  A    between atoms: _79  and  _80
REMARK   35  A    between atoms: _83  and  _85
REMARK   36  A    between atoms: _85  and  _86
REMARK   37  A    between atoms: _85  and  _88
REMARK   38  A    between atoms: _88  and  _89
REMARK   39  A    between atoms: _92  and  _94
REMARK   40  A    between atoms: _94  and  _95
REMARK   41  A    between atoms: _94  and  _97
REMARK   42  A    between atoms: _100  and  _102
REMARK   43  A    between atoms: _102  and  _103
REMARK   44  A    between atoms: _102  and  _105
REMARK   45  A    between atoms: _106  and  _107
REMARK   46  A    between atoms: _107  and  _108
REMARK   47  A    between atoms: _108  and  _109
REMARK   48  A    between atoms: _113  and  _115
REMARK   49  A    between atoms: _115  and  _116
REMARK   50  A    between atoms: _115  and  _118
REMARK   51  A    between atoms: _118  and  _119
REMARK   52  A    between atoms: _119  and  _120
REMARK   53  A    between atoms: _122  and  _124
REMARK   54  A    between atoms: _124  and  _125
REMARK   55  A    between atoms: _124  and  _127
REMARK   56  A    between atoms: _127  and  _128
REMARK   57  A    between atoms: _131  and  _133
REMARK   58  A    between atoms: _133  and  _134
REMARK   59  A    between atoms: _136  and  _138
REMARK   60  A    between atoms: _138  and  _139
REMARK   61  A    between atoms: _141  and  _143
REMARK   62  A    between atoms: _143  and  _144
REMARK   63  A    between atoms: _143  and  _146
REMARK   64  A    between atoms: _146  and  _147
REMARK   65  A    between atoms: _150  and  _152
REMARK   66  A    between atoms: _152  and  _153
REMARK   67  A    between atoms: _155  and  _157
REMARK   68  A    between atoms: _157  and  _158
REMARK   69  A    between atoms: _160  and  _162
REMARK   70  A    between atoms: _162  and  _163
REMARK   71  A    between atoms: _162  and  _165
REMARK   72  A    between atoms: _165  and  _166
REMARK   73  A    between atoms: _169  and  _171
REMARK   74  A    between atoms: _171  and  _172
REMARK   75  A    between atoms: _171  and  _174
REMARK   76  A    between atoms: _177  and  _179
REMARK   77  A    between atoms: _179  and  _180
REMARK   78  A    between atoms: _179  and  _182
REMARK   79  A    between atoms: _182  and  _183
REMARK   80  A    between atoms: _187  and  _188
REMARK   81  A    between atoms: _193  and  _195
REMARK   82  A    between atoms: _195  and  _196
REMARK   83  A    between atoms: _195  and  _198
REMARK   84  A    between atoms: _198  and  _199
REMARK   85  A    between atoms: _203  and  _204
REMARK   86  A    between atoms: _209  and  _211
REMARK   87  A    between atoms: _211  and  _212
REMARK   88  A    between atoms: _211  and  _214
REMARK   89  A    between atoms: _217  and  _219
REMARK   90  A    between atoms: _219  and  _220
REMARK   91  A    between atoms: _219  and  _222
REMARK   92  A    between atoms: _222  and  _223
REMARK   93  A    between atoms: _228  and  _230
REMARK   94  A    between atoms: _230  and  _231
REMARK   95  A    between atoms: _230  and  _233
REMARK   96  A    between atoms: _233  and  _234
REMARK   97  A    between atoms: _237  and  _239
REMARK   98  A    between atoms: _239  and  _240
REMARK   99  A    between atoms: _239  and  _242
REMARK  100  A    between atoms: _242  and  _243
REMARK  101  A    between atoms: _246  and  _248
REMARK  102  A    between atoms: _248  and  _249
REMARK  103  A    between atoms: _251  and  _253
REMARK  104  A    between atoms: _253  and  _254
REMARK  105  A    between atoms: _253  and  _256
REMARK  106  A    between atoms: _256  and  _257
REMARK  107  A    between atoms: _257  and  _258
REMARK  108  A    between atoms: _258  and  _259
REMARK  109  A    between atoms: _268  and  _270
REMARK  110  A    between atoms: _270  and  _271
REMARK  111  A    between atoms: _270  and  _273
REMARK  112  A    between atoms: _273  and  _274
REMARK  113  A    between atoms: _279  and  _281
REMARK  114  A    between atoms: _281  and  _282
REMARK  115  A    between atoms: _281  and  _284
REMARK  116  A    between atoms: _284  and  _285
REMARK  117  A    between atoms: _285  and  _286
REMARK  118  A    between atoms: _286  and  _287
REMARK  119  A    between atoms: _296  and  _298
REMARK  120  A    between atoms: _298  and  _299
REMARK  121  A    between atoms: _298  and  _301
REMARK  122  A    between atoms: _301  and  _302
REMARK  123  A    between atoms: _305  and  _307
REMARK  124  A    between atoms: _307  and  _308
REMARK  125  A    between atoms: _307  and  _310
REMARK  126  A    between atoms: _310  and  _311
REMARK  127  A    between atoms: _314  and  _316
REMARK  128  A    between atoms: _316  and  _317
REMARK  129  A    between atoms: _316  and  _319
REMARK  130  A    between atoms: _319  and  _320
REMARK  131  A    between atoms: _323  and  _325
REMARK  132  A    between atoms: _325  and  _326
REMARK  133  A    between atoms: _325  and  _328
REMARK  134  A    between atoms: _328  and  _329
REMARK  135  A    between atoms: _332  and  _334
REMARK  136  A    between atoms: _334  and  _335
REMARK  137  A    between atoms: _337  and  _339
REMARK  138  A    between atoms: _339  and  _340
REMARK  139  A    between atoms: _343  and  _345
REMARK  140  A    between atoms: _345  and  _346
REMARK  141  A    between atoms: _345  and  _348
REMARK  142  A    between atoms: _348  and  _349
REMARK  143  A    between atoms: _352  and  _354
REMARK  144  A    between atoms: _354  and  _355
REMARK  145  A    between atoms: _354  and  _357
REMARK  146  A    between atoms: _357  and  _358
REMARK  147  A    between atoms: _361  and  _363
REMARK  148  A    between atoms: _363  and  _364
REMARK  149  A    between atoms: _363  and  _366
REMARK  150  A    between atoms: _366  and  _367
REMARK  151  A    between atoms: _370  and  _372
REMARK  152  A    between atoms: _372  and  _373
REMARK  153  A    between atoms: _372  and  _375
REMARK  154  A    between atoms: _378  and  _380
REMARK  155  A    between atoms: _380  and  _381
REMARK  156  A    between atoms: _380  and  _383
REMARK  157  A    between atoms: _384  and  _385
REMARK  158  A    between atoms: _385  and  _386
REMARK  159  A    between atoms: _386  and  _387
REMARK  160  A    between atoms: _391  and  _393
REMARK  161  A    between atoms: _393  and  _394
REMARK  162  A    between atoms: _393  and  _396
REMARK  163  A    between atoms: _396  and  _397
REMARK  164  A    between atoms: _397  and  _398
REMARK  165  A    between atoms: _400  and  _402
REMARK  166  A    between atoms: _402  and  _403
REMARK  167  A    between atoms: _402  and  _405
REMARK  168  A    between atoms: _405  and  _406
REMARK  169  A    between atoms: _409  and  _411
REMARK  170  A    between atoms: _411  and  _412
REMARK  171  A    between atoms: _414  and  _416
REMARK  172  A    between atoms: _416  and  _417
REMARK  173  A    between atoms: _419  and  _421
REMARK  174  A    between atoms: _421  and  _422
REMARK  175  A    between atoms: _421  and  _424
REMARK  176  A    between atoms: _424  and  _425
REMARK  177  A    between atoms: _428  and  _430
REMARK  178  A    between atoms: _430  and  _431
REMARK  179  A    between atoms: _433  and  _435
REMARK  180  A    between atoms: _435  and  _436
REMARK  181  A    between atoms: _438  and  _440
REMARK  182  A    between atoms: _440  and  _441
REMARK  183  A    between atoms: _440  and  _443
REMARK  184  A    between atoms: _443  and  _444
REMARK  185  A    between atoms: _450  and  _452
REMARK  186  A    between atoms: _452  and  _453
REMARK  187  A    between atoms: _452  and  _455
REMARK  188  A    between atoms: _455  and  _456
REMARK  189  A    between atoms: _459  and  _461
REMARK  190  A    between atoms: _461  and  _462
REMARK  191  A    between atoms: _461  and  _464
REMARK  192  A    between atoms: _467  and  _469
REMARK  193  A    between atoms: _469  and  _470
REMARK  194  A    between atoms: _469  and  _472
REMARK  195  A    between atoms: _472  and  _473
REMARK  196  A    between atoms: _476  and  _478
REMARK  197  A    between atoms: _478  and  _479
REMARK  198  A    between atoms: _478  and  _481
REMARK  199  A    between atoms: _481  and  _482
REMARK  200  A    between atoms: _486  and  _487
REMARK  201  A    between atoms: _492  and  _494
REMARK  202  A    between atoms: _494  and  _495
REMARK  203  A    between atoms: _494  and  _497
REMARK  204  A    between atoms: _500  and  _502
REMARK  205  A    between atoms: _502  and  _503
REMARK  206  A    between atoms: _502  and  _505
REMARK  207  A    between atoms: _505  and  _506
REMARK  208  A    between atoms: _511  and  _513
REMARK  209  A    between atoms: _513  and  _514
REMARK  210  A    between atoms: _513  and  _516
REMARK  211  A    between atoms: _516  and  _517
REMARK  212  A    between atoms: _520  and  _522
REMARK  213  A    between atoms: _522  and  _523
REMARK  214  A    between atoms: _522  and  _525
REMARK  215  A    between atoms: _525  and  _526
REMARK  216  A    between atoms: _529  and  _531
REMARK  217  A    between atoms: _531  and  _532
REMARK  218  A    between atoms: _534  and  _536
REMARK  219  A    between atoms: _536  and  _537
REMARK  220  A    between atoms: _536  and  _539
REMARK  221  A    between atoms: _539  and  _540
REMARK  222  A    between atoms: _540  and  _541
REMARK  223  A    between atoms: _541  and  _542
REMARK  224  A    between atoms: _551  and  _553
REMARK  225  A    between atoms: _553  and  _554
REMARK  226  A    between atoms: _553  and  _556
REMARK  227  A    between atoms: _556  and  _557
REMARK                            x       y       z     vdW  Elec       q    Type
REMARK                         _______ _______ _______ _____ _____    ______ ____
ROOT
ATOM      1  O   HOH     1      11.220  14.027  15.744  0.00  0.00    +0.000 OA
ENDROOT
TORSDOF 0
REMARK  Name = ../refined-set-2016/3a2o/3a2o_pocket.pdb
REMARK  227 active torsions:
REMARK  status: ('A' for Active; 'I' for Inactive)
REMARK    1  A    between atoms: _1  and  _3
REMARK    2  A    between atoms: _3  and  _4
REMARK    3  A    between atoms: _3  and  _6
REMARK    4  A    between atoms: _6  and  _7
REMARK    5  A    between atoms: _7  and  _8
REMARK    6  A    between atoms: _8  and  _9
REMARK    7  A    between atoms: _18  and  _20
REMARK    8  A    between atoms: _20  and  _21
REMARK    9  A    between atoms: _20  and  _23
REMARK   10  A    between atoms: _23  and  _24
REMARK   11  A    between atoms: _27  and  _29
REMARK   12  A    between atoms: _29  and  _30
REMARK   13  A    between atoms: _29  and  _32
REMARK   14  A    between atoms: _32  and  _33
REMARK   15  A    between atoms: _36  and  _38
REMARK   16  A    between atoms: _38  and  _39
REMARK   17  A    between atoms: _38  and  _41
REMARK   18  A    between atoms: _41  and  _42
REMARK   19  A    between atoms: _45  and  _47
REMARK   20  A    between atoms: _47  and  _48
REMARK   21  A    between atoms: _47  and  _50
REMARK   22  A    between atoms: _50  and  _51
REMARK   23  A    between atoms: _54  and  _56
REMARK   24  A    between atoms: _56  and  _57
REMARK   25  A    between atoms: _59  and  _61
REMARK   26  A    between atoms: _61  and  _62
REMARK   27  A    between atoms: _65  and  _67
REMARK   28  A    between atoms: _67  and  _68
REMARK   29  A    between atoms: _67  and  _70
REMARK   30  A    between atoms: _70  and  _71
REMARK   31  A    between atoms: _74  and  _76
REMARK   32  A    between atoms: _76  and  _77
REMARK   33  A    between atoms: _76  and  _79
REMARK   34  A    between atoms: _79  and  _80
REMARK   35  A    between atoms: _83  and  _85
REMARK   36  A    between atoms: _85  and  _86
REMARK   37  A    between atoms: _85  and  _88
REMARK   38  A    between atoms: _88  and  _89
REMARK   39  A    between atoms: _92  and  _94
REMARK   40  A    between atoms: _94  and  _95
REMARK   41  A    between atoms: _94  and  _97
REMARK   42  A    between atoms: _100  and  _102
REMARK   43  A    between atoms: _102  and  _103
REMARK   44  A    between atoms: _102  and  _105
REMARK   45  A    between atoms: _106  and  _107
REMARK   46  A    between atoms: _107  and  _108
REMARK   47  A    between atoms: _108  and  _109
REMARK   48  A    between atoms: _113  and  _115
REMARK   49  A    between atoms: _115  and  _116
REMARK   50  A    between atoms: _115  and  _118
REMARK   51  A    between atoms: _118  and  _119
REMARK   52  A    between atoms: _119  and  _120
REMARK   53  A    between atoms: _122  and  _124
REMARK   54  A    between atoms: _124  and  _125
REMARK   55  A    between atoms: _124  and  _127
REMARK   56  A    between atoms: _127  and  _128
REMARK   57  A    between atoms: _131  and  _133
REMARK   58  A    between atoms: _133  and  _134
REMARK   59  A    between atoms: _136  and  _138
REMARK   60  A    between atoms: _138  and  _139
REMARK   61  A    between atoms: _141  and  _143
REMARK   62  A    between atoms: _143  and  _144
REMARK   63  A    between atoms: _143  and  _146
REMARK   64  A    between atoms: _146  and  _147
REMARK   65  A    between atoms: _150  and  _152
REMARK   66  A    between atoms: _152  and  _153
REMARK   67  A    between atoms: _155  and  _157
REMARK   68  A    between atoms: _157  and  _158
REMARK   69  A    between atoms: _160  and  _162
REMARK   70  A    between atoms: _162  and  _163
REMARK   71  A    between atoms: _162  and  _165
REMARK   72  A    between atoms: _165  and  _166
REMARK   73  A    between atoms: _169  and  _171
REMARK   74  A    between atoms: _171  and  _172
REMARK   75  A    between atoms: _171  and  _174
REMARK   76  A    between atoms: _177  and  _179
REMARK   77  A    between atoms: _179  and  _180
REMARK   78  A    between atoms: _179  and  _182
REMARK   79  A    between atoms: _182  and  _183
REMARK   80  A    between atoms: _187  and  _188
REMARK   81  A    between atoms: _193  and  _195
REMARK   82  A    between atoms: _195  and  _196
REMARK   83  A    between atoms: _195  and  _198
REMARK   84  A    between atoms: _198  and  _199
REMARK   85  A    between atoms: _203  and  _204
REMARK   86  A    between atoms: _209  and  _211
REMARK   87  A    between atoms: _211  and  _212
REMARK   88  A    between atoms: _211  and  _214
REMARK   89  A    between atoms: _217  and  _219
REMARK   90  A    between atoms: _219  and  _220
REMARK   91  A    between atoms: _219  and  _222
REMARK   92  A    between atoms: _222  and  _223
REMARK   93  A    between atoms: _228  and  _230
REMARK   94  A    between atoms: _230  and  _231
REMARK   95  A    between atoms: _230  and  _233
REMARK   96  A    between atoms: _233  and  _234
REMARK   97  A    between atoms: _237  and  _239
REMARK   98  A    between atoms: _239  and  _240
REMARK   99  A    between atoms: _239  and  _242
REMARK  100  A    between atoms: _242  and  _243
REMARK  101  A    between atoms: _246  and  _248
REMARK  102  A    between atoms: _248  and  _249
REMARK  103  A    between atoms: _251  and  _253
REMARK  104  A    between atoms: _253  and  _254
REMARK  105  A    between atoms: _253  and  _256
REMARK  106  A    between atoms: _256  and  _257
REMARK  107  A    between atoms: _257  and  _258
REMARK  108  A    between atoms: _258  and  _259
REMARK  109  A    between atoms: _268  and  _270
REMARK  110  A    between atoms: _270  and  _271
REMARK  111  A    between atoms: _270  and  _273
REMARK  112  A    between atoms: _273  and  _274
REMARK  113  A    between atoms: _279  and  _281
REMARK  114  A    between atoms: _281  and  _282
REMARK  115  A    between atoms: _281  and  _284
REMARK  116  A    between atoms: _284  and  _285
REMARK  117  A    between atoms: _285  and  _286
REMARK  118  A    between atoms: _286  and  _287
REMARK  119  A    between atoms: _296  and  _298
REMARK  120  A    between atoms: _298  and  _299
REMARK  121  A    between atoms: _298  and  _301
REMARK  122  A    between atoms: _301  and  _302
REMARK  123  A    between atoms: _305  and  _307
REMARK  124  A    between atoms: _307  and  _308
REMARK  125  A    between atoms: _307  and  _310
REMARK  126  A    between atoms: _310  and  _311
REMARK  127  A    between atoms: _314  and  _316
REMARK  128  A    between atoms: _316  and  _317
REMARK  129  A    between atoms: _316  and  _319
REMARK  130  A    between atoms: _319  and  _320
REMARK  131  A    between atoms: _323  and  _325
REMARK  132  A    between atoms: _325  and  _326
REMARK  133  A    between atoms: _325  and  _328
REMARK  134  A    between atoms: _328  and  _329
REMARK  135  A    between atoms: _332  and  _334
REMARK  136  A    between atoms: _334  and  _335
REMARK  137  A    between atoms: _337  and  _339
REMARK  138  A    between atoms: _339  and  _340
REMARK  139  A    between atoms: _343  and  _345
REMARK  140  A    between atoms: _345  and  _346
REMARK  141  A    between atoms: _345  and  _348
REMARK  142  A    between atoms: _348  and  _349
REMARK  143  A    between atoms: _352  and  _354
REMARK  144  A    between atoms: _354  and  _355
REMARK  145  A    between atoms: _354  and  _357
REMARK  146  A    between atoms: _357  and  _358
REMARK  147  A    between atoms: _361  and  _363
REMARK  148  A    between atoms: _363  and  _364
REMARK  149  A    between atoms: _363  and  _366
REMARK  150  A    between atoms: _366  and  _367
REMARK  151  A    between atoms: _370  and  _372
REMARK  152  A    between atoms: _372  and  _373
REMARK  153  A    between atoms: _372  and  _375
REMARK  154  A    between atoms: _378  and  _380
REMARK  155  A    between atoms: _380  and  _381
REMARK  156  A    between atoms: _380  and  _383
REMARK  157  A    between atoms: _384  and  _385
REMARK  158  A    between atoms: _385  and  _386
REMARK  159  A    between atoms: _386  and  _387
REMARK  160  A    between atoms: _391  and  _393
REMARK  161  A    between atoms: _393  and  _394
REMARK  162  A    between atoms: _393  and  _396
REMARK  163  A    between atoms: _396  and  _397
REMARK  164  A    between atoms: _397  and  _398
REMARK  165  A    between atoms: _400  and  _402
REMARK  166  A    between atoms: _402  and  _403
REMARK  167  A    between atoms: _402  and  _405
REMARK  168  A    between atoms: _405  and  _406
REMARK  169  A    between atoms: _409  and  _411
REMARK  170  A    between atoms: _411  and  _412
REMARK  171  A    between atoms: _414  and  _416
REMARK  172  A    between atoms: _416  and  _417
REMARK  173  A    between atoms: _419  and  _421
REMARK  174  A    between atoms: _421  and  _422
REMARK  175  A    between atoms: _421  and  _424
REMARK  176  A    between atoms: _424  and  _425
REMARK  177  A    between atoms: _428  and  _430
REMARK  178  A    between atoms: _430  and  _431
REMARK  179  A    between atoms: _433  and  _435
REMARK  180  A    between atoms: _435  and  _436
REMARK  181  A    between atoms: _438  and  _440
REMARK  182  A    between atoms: _440  and  _441
REMARK  183  A    between atoms: _440  and  _443
REMARK  184  A    between atoms: _443  and  _444
REMARK  185  A    between atoms: _450  and  _452
REMARK  186  A    between atoms: _452  and  _453
REMARK  187  A    between atoms: _452  and  _455
REMARK  188  A    between atoms: _455  and  _456
REMARK  189  A    between atoms: _459  and  _461
REMARK  190  A    between atoms: _461  and  _462
REMARK  191  A    between atoms: _461  and  _464
REMARK  192  A    between atoms: _467  and  _469
REMARK  193  A    between atoms: _469  and  _470
REMARK  194  A    between atoms: _469  and  _472
REMARK  195  A    between atoms: _472  and  _473
REMARK  196  A    between atoms: _476  and  _478
REMARK  197  A    between atoms: _478  and  _479
REMARK  198  A    between atoms: _478  and  _481
REMARK  199  A    between atoms: _481  and  _482
REMARK  200  A    between atoms: _486  and  _487
REMARK  201  A    between atoms: _492  and  _494
REMARK  202  A    between atoms: _494  and  _495
REMARK  203  A    between atoms: _494  and  _497
REMARK  204  A    between atoms: _500  and  _502
REMARK  205  A    between atoms: _502  and  _503
REMARK  206  A    between atoms: _502  and  _505
REMARK  207  A    between atoms: _505  and  _506
REMARK  208  A    between atoms: _511  and  _513
REMARK  209  A    between atoms: _513  and  _514
REMARK  210  A    between atoms: _513  and  _516
REMARK  211  A    between atoms: _516  and  _517
REMARK  212  A    between atoms: _520  and  _522
REMARK  213  A    between atoms: _522  and  _523
REMARK  214  A    between atoms: _522  and  _525
REMARK  215  A    between atoms: _525  and  _526
REMARK  216  A    between atoms: _529  and  _531
REMARK  217  A    between atoms: _531  and  _532
REMARK  218  A    between atoms: _534  and  _536
REMARK  219  A    between atoms: _536  and  _537
REMARK  220  A    between atoms: _536  and  _539
REMARK  221  A    between atoms: _539  and  _540
REMARK  222  A    between atoms: _540  and  _541
REMARK  223  A    between atoms: _541  and  _542
REMARK  224  A    between atoms: _551  and  _553
REMARK  225  A    between atoms: _553  and  _554
REMARK  226  A    between atoms: _553  and  _556
REMARK  227  A    between atoms: _556  and  _557
REMARK                            x       y       z     vdW  Elec       q    Type
REMARK                         _______ _______ _______ _____ _____    ______ ____
ROOT
ATOM      1  O   HOH     1       9.959   7.628  18.885  0.00  0.00    +0.000 OA
ENDROOT
TORSDOF 0
REMARK  Name = ../refined-set-2016/3a2o/3a2o_pocket.pdb
REMARK  227 active torsions:
REMARK  status: ('A' for Active; 'I' for Inactive)
REMARK    1  A    between atoms: _1  and  _3
REMARK    2  A    between atoms: _3  and  _4
REMARK    3  A    between atoms: _3  and  _6
REMARK    4  A    between atoms: _6  and  _7
REMARK    5  A    between atoms: _7  and  _8
REMARK    6  A    between atoms: _8  and  _9
REMARK    7  A    between atoms: _18  and  _20
REMARK    8  A    between atoms: _20  and  _21
REMARK    9  A    between atoms: _20  and  _23
REMARK   10  A    between atoms: _23  and  _24
REMARK   11  A    between atoms: _27  and  _29
REMARK   12  A    between atoms: _29  and  _30
REMARK   13  A    between atoms: _29  and  _32
REMARK   14  A    between atoms: _32  and  _33
REMARK   15  A    between atoms: _36  and  _38
REMARK   16  A    between atoms: _38  and  _39
REMARK   17  A    between atoms: _38  and  _41
REMARK   18  A    between atoms: _41  and  _42
REMARK   19  A    between atoms: _45  and  _47
REMARK   20  A    between atoms: _47  and  _48
REMARK   21  A    between atoms: _47  and  _50
REMARK   22  A    between atoms: _50  and  _51
REMARK   23  A    between atoms: _54  and  _56
REMARK   24  A    between atoms: _56  and  _57
REMARK   25  A    between atoms: _59  and  _61
REMARK   26  A    between atoms: _61  and  _62
REMARK   27  A    between atoms: _65  and  _67
REMARK   28  A    between atoms: _67  and  _68
REMARK   29  A    between atoms: _67  and  _70
REMARK   30  A    between atoms: _70  and  _71
REMARK   31  A    between atoms: _74  and  _76
REMARK   32  A    between atoms: _76  and  _77
REMARK   33  A    between atoms: _76  and  _79
REMARK   34  A    between atoms: _79  and  _80
REMARK   35  A    between atoms: _83  and  _85
REMARK   36  A    between atoms: _85  and  _86
REMARK   37  A    between atoms: _85  and  _88
REMARK   38  A    between atoms: _88  and  _89
REMARK   39  A    between atoms: _92  and  _94
REMARK   40  A    between atoms: _94  and  _95
REMARK   41  A    between atoms: _94  and  _97
REMARK   42  A    between atoms: _100  and  _102
REMARK   43  A    between atoms: _102  and  _103
REMARK   44  A    between atoms: _102  and  _105
REMARK   45  A    between atoms: _106  and  _107
REMARK   46  A    between atoms: _107  and  _108
REMARK   47  A    between atoms: _108  and  _109
REMARK   48  A    between atoms: _113  and  _115
REMARK   49  A    between atoms: _115  and  _116
REMARK   50  A    between atoms: _115  and  _118
REMARK   51  A    between atoms: _118  and  _119
REMARK   52  A    between atoms: _119  and  _120
REMARK   53  A    between atoms: _122  and  _124
REMARK   54  A    between atoms: _124  and  _125
REMARK   55  A    between atoms: _124  and  _127
REMARK   56  A    between atoms: _127  and  _128
REMARK   57  A    between atoms: _131  and  _133
REMARK   58  A    between atoms: _133  and  _134
REMARK   59  A    between atoms: _136  and  _138
REMARK   60  A    between atoms: _138  and  _139
REMARK   61  A    between atoms: _141  and  _143
REMARK   62  A    between atoms: _143  and  _144
REMARK   63  A    between atoms: _143  and  _146
REMARK   64  A    between atoms: _146  and  _147
REMARK   65  A    between atoms: _150  and  _152
REMARK   66  A    between atoms: _152  and  _153
REMARK   67  A    between atoms: _155  and  _157
REMARK   68  A    between atoms: _157  and  _158
REMARK   69  A    between atoms: _160  and  _162
REMARK   70  A    between atoms: _162  and  _163
REMARK   71  A    between atoms: _162  and  _165
REMARK   72  A    between atoms: _165  and  _166
REMARK   73  A    between atoms: _169  and  _171
REMARK   74  A    between atoms: _171  and  _172
REMARK   75  A    between atoms: _171  and  _174
REMARK   76  A    between atoms: _177  and  _179
REMARK   77  A    between atoms: _179  and  _180
REMARK   78  A    between atoms: _179  and  _182
REMARK   79  A    between atoms: _182  and  _183
REMARK   80  A    between atoms: _187  and  _188
REMARK   81  A    between atoms: _193  and  _195
REMARK   82  A    between atoms: _195  and  _196
REMARK   83  A    between atoms: _195  and  _198
REMARK   84  A    between atoms: _198  and  _199
REMARK   85  A    between atoms: _203  and  _204
REMARK   86  A    between atoms: _209  and  _211
REMARK   87  A    between atoms: _211  and  _212
REMARK   88  A    between atoms: _211  and  _214
REMARK   89  A    between atoms: _217  and  _219
REMARK   90  A    between atoms: _219  and  _220
REMARK   91  A    between atoms: _219  and  _222
REMARK   92  A    between atoms: _222  and  _223
REMARK   93  A    between atoms: _228  and  _230
REMARK   94  A    between atoms: _230  and  _231
REMARK   95  A    between atoms: _230  and  _233
REMARK   96  A    between atoms: _233  and  _234
REMARK   97  A    between atoms: _237  and  _239
REMARK   98  A    between atoms: _239  and  _240
REMARK   99  A    between atoms: _239  and  _242
REMARK  100  A    between atoms: _242  and  _243
REMARK  101  A    between atoms: _246  and  _248
REMARK  102  A    between atoms: _248  and  _249
REMARK  103  A    between atoms: _251  and  _253
REMARK  104  A    between atoms: _253  and  _254
REMARK  105  A    between atoms: _253  and  _256
REMARK  106  A    between atoms: _256  and  _257
REMARK  107  A    between atoms: _257  and  _258
REMARK  108  A    between atoms: _258  and  _259
REMARK  109  A    between atoms: _268  and  _270
REMARK  110  A    between atoms: _270  and  _271
REMARK  111  A    between atoms: _270  and  _273
REMARK  112  A    between atoms: _273  and  _274
REMARK  113  A    between atoms: _279  and  _281
REMARK  114  A    between atoms: _281  and  _282
REMARK  115  A    between atoms: _281  and  _284
REMARK  116  A    between atoms: _284  and  _285
REMARK  117  A    between atoms: _285  and  _286
REMARK  118  A    between atoms: _286  and  _287
REMARK  119  A    between atoms: _296  and  _298
REMARK  120  A    between atoms: _298  and  _299
REMARK  121  A    between atoms: _298  and  _301
REMARK  122  A    between atoms: _301  and  _302
REMARK  123  A    between atoms: _305  and  _307
REMARK  124  A    between atoms: _307  and  _308
REMARK  125  A    between atoms: _307  and  _310
REMARK  126  A    between atoms: _310  and  _311
REMARK  127  A    between atoms: _314  and  _316
REMARK  128  A    between atoms: _316  and  _317
REMARK  129  A    between atoms: _316  and  _319
REMARK  130  A    between atoms: _319  and  _320
REMARK  131  A    between atoms: _323  and  _325
REMARK  132  A    between atoms: _325  and  _326
REMARK  133  A    between atoms: _325  and  _328
REMARK  134  A    between atoms: _328  and  _329
REMARK  135  A    between atoms: _332  and  _334
REMARK  136  A    between atoms: _334  and  _335
REMARK  137  A    between atoms: _337  and  _339
REMARK  138  A    between atoms: _339  and  _340
REMARK  139  A    between atoms: _343  and  _345
REMARK  140  A    between atoms: _345  and  _346
REMARK  141  A    between atoms: _345  and  _348
REMARK  142  A    between atoms: _348  and  _349
REMARK  143  A    between atoms: _352  and  _354
REMARK  144  A    between atoms: _354  and  _355
REMARK  145  A    between atoms: _354  and  _357
REMARK  146  A    between atoms: _357  and  _358
REMARK  147  A    between atoms: _361  and  _363
REMARK  148  A    between atoms: _363  and  _364
REMARK  149  A    between atoms: _363  and  _366
REMARK  150  A    between atoms: _366  and  _367
REMARK  151  A    between atoms: _370  and  _372
REMARK  152  A    between atoms: _372  and  _373
REMARK  153  A    between atoms: _372  and  _375
REMARK  154  A    between atoms: _378  and  _380
REMARK  155  A    between atoms: _380  and  _381
REMARK  156  A    between atoms: _380  and  _383
REMARK  157  A    between atoms: _384  and  _385
REMARK  158  A    between atoms: _385  and  _386
REMARK  159  A    between atoms: _386  and  _387
REMARK  160  A    between atoms: _391  and  _393
REMARK  161  A    between atoms: _393  and  _394
REMARK  162  A    between atoms: _393  and  _396
REMARK  163  A    between atoms: _396  and  _397
REMARK  164  A    between atoms: _397  and  _398
REMARK  165  A    between atoms: _400  and  _402
REMARK  166  A    between atoms: _402  and  _403
REMARK  167  A    between atoms: _402  and  _405
REMARK  168  A    between atoms: _405  and  _406
REMARK  169  A    between atoms: _409  and  _411
REMARK  170  A    between atoms: _411  and  _412
REMARK  171  A    between atoms: _414  and  _416
REMARK  172  A    between atoms: _416  and  _417
REMARK  173  A    between atoms: _419  and  _421
REMARK  174  A    between atoms: _421  and  _422
REMARK  175  A    between atoms: _421  and  _424
REMARK  176  A    between atoms: _424  and  _425
REMARK  177  A    between atoms: _428  and  _430
REMARK  178  A    between atoms: _430  and  _431
REMARK  179  A    between atoms: _433  and  _435
REMARK  180  A    between atoms: _435  and  _436
REMARK  181  A    between atoms: _438  and  _440
REMARK  182  A    between atoms: _440  and  _441
REMARK  183  A    between atoms: _440  and  _443
REMARK  184  A    between atoms: _443  and  _444
REMARK  185  A    between atoms: _450  and  _452
REMARK  186  A    between atoms: _452  and  _453
REMARK  187  A    between atoms: _452  and  _455
REMARK  188  A    between atoms: _455  and  _456
REMARK  189  A    between atoms: _459  and  _461
REMARK  190  A    between atoms: _461  and  _462
REMARK  191  A    between atoms: _461  and  _464
REMARK  192  A    between atoms: _467  and  _469
REMARK  193  A    between atoms: _469  and  _470
REMARK  194  A    between atoms: _469  and  _472
REMARK  195  A    between atoms: _472  and  _473
REMARK  196  A    between atoms: _476  and  _478
REMARK  197  A    between atoms: _478  and  _479
REMARK  198  A    between atoms: _478  and  _481
REMARK  199  A    between atoms: _481  and  _482
REMARK  200  A    between atoms: _486  and  _487
REMARK  201  A    between atoms: _492  and  _494
REMARK  202  A    between atoms: _494  and  _495
REMARK  203  A    between atoms: _494  and  _497
REMARK  204  A    between atoms: _500  and  _502
REMARK  205  A    between atoms: _502  and  _503
REMARK  206  A    between atoms: _502  and  _505
REMARK  207  A    between atoms: _505  and  _506
REMARK  208  A    between atoms: _511  and  _513
REMARK  209  A    between atoms: _513  and  _514
REMARK  210  A    between atoms: _513  and  _516
REMARK  211  A    between atoms: _516  and  _517
REMARK  212  A    between atoms: _520  and  _522
REMARK  213  A    between atoms: _522  and  _523
REMARK  214  A    between atoms: _522  and  _525
REMARK  215  A    between atoms: _525  and  _526
REMARK  216  A    between atoms: _529  and  _531
REMARK  217  A    between atoms: _531  and  _532
REMARK  218  A    between atoms: _534  and  _536
REMARK  219  A    between atoms: _536  and  _537
REMARK  220  A    between atoms: _536  and  _539
REMARK  221  A    between atoms: _539  and  _540
REMARK  222  A    between atoms: _540  and  _541
REMARK  223  A    between atoms: _541  and  _542
REMARK  224  A    between atoms: _551  and  _553
REMARK  225  A    between atoms: _553  and  _554
REMARK  226  A    between atoms: _553  and  _556
REMARK  227  A    between atoms: _556  and  _557
REMARK                            x       y       z     vdW  Elec       q    Type
REMARK                         _______ _______ _______ _____ _____    ______ ____
ROOT
ATOM      1  O   HOH     1       4.387  18.805  22.964  0.00  0.00    +0.000 OA
ENDROOT
TORSDOF 0
REMARK  Name = ../refined-set-2016/3a2o/3a2o_pocket.pdb
REMARK  227 active torsions:
REMARK  status: ('A' for Active; 'I' for Inactive)
REMARK    1  A    between atoms: _1  and  _3
REMARK    2  A    between atoms: _3  and  _4
REMARK    3  A    between atoms: _3  and  _6
REMARK    4  A    between atoms: _6  and  _7
REMARK    5  A    between atoms: _7  and  _8
REMARK    6  A    between atoms: _8  and  _9
REMARK    7  A    between atoms: _18  and  _20
REMARK    8  A    between atoms: _20  and  _21
REMARK    9  A    between atoms: _20  and  _23
REMARK   10  A    between atoms: _23  and  _24
REMARK   11  A    between atoms: _27  and  _29
REMARK   12  A    between atoms: _29  and  _30
REMARK   13  A    between atoms: _29  and  _32
REMARK   14  A    between atoms: _32  and  _33
REMARK   15  A    between atoms: _36  and  _38
REMARK   16  A    between atoms: _38  and  _39
REMARK   17  A    between atoms: _38  and  _41
REMARK   18  A    between atoms: _41  and  _42
REMARK   19  A    between atoms: _45  and  _47
REMARK   20  A    between atoms: _47  and  _48
REMARK   21  A    between atoms: _47  and  _50
REMARK   22  A    between atoms: _50  and  _51
REMARK   23  A    between atoms: _54  and  _56
REMARK   24  A    between atoms: _56  and  _57
REMARK   25  A    between atoms: _59  and  _61
REMARK   26  A    between atoms: _61  and  _62
REMARK   27  A    between atoms: _65  and  _67
REMARK   28  A    between atoms: _67  and  _68
REMARK   29  A    between atoms: _67  and  _70
REMARK   30  A    between atoms: _70  and  _71
REMARK   31  A    between atoms: _74  and  _76
REMARK   32  A    between atoms: _76  and  _77
REMARK   33  A    between atoms: _76  and  _79
REMARK   34  A    between atoms: _79  and  _80
REMARK   35  A    between atoms: _83  and  _85
REMARK   36  A    between atoms: _85  and  _86
REMARK   37  A    between atoms: _85  and  _88
REMARK   38  A    between atoms: _88  and  _89
REMARK   39  A    between atoms: _92  and  _94
REMARK   40  A    between atoms: _94  and  _95
REMARK   41  A    between atoms: _94  and  _97
REMARK   42  A    between atoms: _100  and  _102
REMARK   43  A    between atoms: _102  and  _103
REMARK   44  A    between atoms: _102  and  _105
REMARK   45  A    between atoms: _106  and  _107
REMARK   46  A    between atoms: _107  and  _108
REMARK   47  A    between atoms: _108  and  _109
REMARK   48  A    between atoms: _113  and  _115
REMARK   49  A    between atoms: _115  and  _116
REMARK   50  A    between atoms: _115  and  _118
REMARK   51  A    between atoms: _118  and  _119
REMARK   52  A    between atoms: _119  and  _120
REMARK   53  A    between atoms: _122  and  _124
REMARK   54  A    between atoms: _124  and  _125
REMARK   55  A    between atoms: _124  and  _127
REMARK   56  A    between atoms: _127  and  _128
REMARK   57  A    between atoms: _131  and  _133
REMARK   58  A    between atoms: _133  and  _134
REMARK   59  A    between atoms: _136  and  _138
REMARK   60  A    between atoms: _138  and  _139
REMARK   61  A    between atoms: _141  and  _143
REMARK   62  A    between atoms: _143  and  _144
REMARK   63  A    between atoms: _143  and  _146
REMARK   64  A    between atoms: _146  and  _147
REMARK   65  A    between atoms: _150  and  _152
REMARK   66  A    between atoms: _152  and  _153
REMARK   67  A    between atoms: _155  and  _157
REMARK   68  A    between atoms: _157  and  _158
REMARK   69  A    between atoms: _160  and  _162
REMARK   70  A    between atoms: _162  and  _163
REMARK   71  A    between atoms: _162  and  _165
REMARK   72  A    between atoms: _165  and  _166
REMARK   73  A    between atoms: _169  and  _171
REMARK   74  A    between atoms: _171  and  _172
REMARK   75  A    between atoms: _171  and  _174
REMARK   76  A    between atoms: _177  and  _179
REMARK   77  A    between atoms: _179  and  _180
REMARK   78  A    between atoms: _179  and  _182
REMARK   79  A    between atoms: _182  and  _183
REMARK   80  A    between atoms: _187  and  _188
REMARK   81  A    between atoms: _193  and  _195
REMARK   82  A    between atoms: _195  and  _196
REMARK   83  A    between atoms: _195  and  _198
REMARK   84  A    between atoms: _198  and  _199
REMARK   85  A    between atoms: _203  and  _204
REMARK   86  A    between atoms: _209  and  _211
REMARK   87  A    between atoms: _211  and  _212
REMARK   88  A    between atoms: _211  and  _214
REMARK   89  A    between atoms: _217  and  _219
REMARK   90  A    between atoms: _219  and  _220
REMARK   91  A    between atoms: _219  and  _222
REMARK   92  A    between atoms: _222  and  _223
REMARK   93  A    between atoms: _228  and  _230
REMARK   94  A    between atoms: _230  and  _231
REMARK   95  A    between atoms: _230  and  _233
REMARK   96  A    between atoms: _233  and  _234
REMARK   97  A    between atoms: _237  and  _239
REMARK   98  A    between atoms: _239  and  _240
REMARK   99  A    between atoms: _239  and  _242
REMARK  100  A    between atoms: _242  and  _243
REMARK  101  A    between atoms: _246  and  _248
REMARK  102  A    between atoms: _248  and  _249
REMARK  103  A    between atoms: _251  and  _253
REMARK  104  A    between atoms: _253  and  _254
REMARK  105  A    between atoms: _253  and  _256
REMARK  106  A    between atoms: _256  and  _257
REMARK  107  A    between atoms: _257  and  _258
REMARK  108  A    between atoms: _258  and  _259
REMARK  109  A    between atoms: _268  and  _270
REMARK  110  A    between atoms: _270  and  _271
REMARK  111  A    between atoms: _270  and  _273
REMARK  112  A    between atoms: _273  and  _274
REMARK  113  A    between atoms: _279  and  _281
REMARK  114  A    between atoms: _281  and  _282
REMARK  115  A    between atoms: _281  and  _284
REMARK  116  A    between atoms: _284  and  _285
REMARK  117  A    between atoms: _285  and  _286
REMARK  118  A    between atoms: _286  and  _287
REMARK  119  A    between atoms: _296  and  _298
REMARK  120  A    between atoms: _298  and  _299
REMARK  121  A    between atoms: _298  and  _301
REMARK  122  A    between atoms: _301  and  _302
REMARK  123  A    between atoms: _305  and  _307
REMARK  124  A    between atoms: _307  and  _308
REMARK  125  A    between atoms: _307  and  _310
REMARK  126  A    between atoms: _310  and  _311
REMARK  127  A    between atoms: _314  and  _316
REMARK  128  A    between atoms: _316  and  _317
REMARK  129  A    between atoms: _316  and  _319
REMARK  130  A    between atoms: _319  and  _320
REMARK  131  A    between atoms: _323  and  _325
REMARK  132  A    between atoms: _325  and  _326
REMARK  133  A    between atoms: _325  and  _328
REMARK  134  A    between atoms: _328  and  _329
REMARK  135  A    between atoms: _332  and  _334
REMARK  136  A    between atoms: _334  and  _335
REMARK  137  A    between atoms: _337  and  _339
REMARK  138  A    between atoms: _339  and  _340
REMARK  139  A    between atoms: _343  and  _345
REMARK  140  A    between atoms: _345  and  _346
REMARK  141  A    between atoms: _345  and  _348
REMARK  142  A    between atoms: _348  and  _349
REMARK  143  A    between atoms: _352  and  _354
REMARK  144  A    between atoms: _354  and  _355
REMARK  145  A    between atoms: _354  and  _357
REMARK  146  A    between atoms: _357  and  _358
REMARK  147  A    between atoms: _361  and  _363
REMARK  148  A    between atoms: _363  and  _364
REMARK  149  A    between atoms: _363  and  _366
REMARK  150  A    between atoms: _366  and  _367
REMARK  151  A    between atoms: _370  and  _372
REMARK  152  A    between atoms: _372  and  _373
REMARK  153  A    between atoms: _372  and  _375
REMARK  154  A    between atoms: _378  and  _380
REMARK  155  A    between atoms: _380  and  _381
REMARK  156  A    between atoms: _380  and  _383
REMARK  157  A    between atoms: _384  and  _385
REMARK  158  A    between atoms: _385  and  _386
REMARK  159  A    between atoms: _386  and  _387
REMARK  160  A    between atoms: _391  and  _393
REMARK  161  A    between atoms: _393  and  _394
REMARK  162  A    between atoms: _393  and  _396
REMARK  163  A    between atoms: _396  and  _397
REMARK  164  A    between atoms: _397  and  _398
REMARK  165  A    between atoms: _400  and  _402
REMARK  166  A    between atoms: _402  and  _403
REMARK  167  A    between atoms: _402  and  _405
REMARK  168  A    between atoms: _405  and  _406
REMARK  169  A    between atoms: _409  and  _411
REMARK  170  A    between atoms: _411  and  _412
REMARK  171  A    between atoms: _414  and  _416
REMARK  172  A    between atoms: _416  and  _417
REMARK  173  A    between atoms: _419  and  _421
REMARK  174  A    between atoms: _421  and  _422
REMARK  175  A    between atoms: _421  and  _424
REMARK  176  A    between atoms: _424  and  _425
REMARK  177  A    between atoms: _428  and  _430
REMARK  178  A    between atoms: _430  and  _431
REMARK  179  A    between atoms: _433  and  _435
REMARK  180  A    between atoms: _435  and  _436
REMARK  181  A    between atoms: _438  and  _440
REMARK  182  A    between atoms: _440  and  _441
REMARK  183  A    between atoms: _440  and  _443
REMARK  184  A    between atoms: _443  and  _444
REMARK  185  A    between atoms: _450  and  _452
REMARK  186  A    between atoms: _452  and  _453
REMARK  187  A    between atoms: _452  and  _455
REMARK  188  A    between atoms: _455  and  _456
REMARK  189  A    between atoms: _459  and  _461
REMARK  190  A    between atoms: _461  and  _462
REMARK  191  A    between atoms: _461  and  _464
REMARK  192  A    between atoms: _467  and  _469
REMARK  193  A    between atoms: _469  and  _470
REMARK  194  A    between atoms: _469  and  _472
REMARK  195  A    between atoms: _472  and  _473
REMARK  196  A    between atoms: _476  and  _478
REMARK  197  A    between atoms: _478  and  _479
REMARK  198  A    between atoms: _478  and  _481
REMARK  199  A    between atoms: _481  and  _482
REMARK  200  A    between atoms: _486  and  _487
REMARK  201  A    between atoms: _492  and  _494
REMARK  202  A    between atoms: _494  and  _495
REMARK  203  A    between atoms: _494  and  _497
REMARK  204  A    between atoms: _500  and  _502
REMARK  205  A    between atoms: _502  and  _503
REMARK  206  A    between atoms: _502  and  _505
REMARK  207  A    between atoms: _505  and  _506
REMARK  208  A    between atoms: _511  and  _513
REMARK  209  A    between atoms: _513  and  _514
REMARK  210  A    between atoms: _513  and  _516
REMARK  211  A    between atoms: _516  and  _517
REMARK  212  A    between atoms: _520  and  _522
REMARK  213  A    between atoms: _522  and  _523
REMARK  214  A    between atoms: _522  and  _525
REMARK  215  A    between atoms: _525  and  _526
REMARK  216  A    between atoms: _529  and  _531
REMARK  217  A    between atoms: _531  and  _532
REMARK  218  A    between atoms: _534  and  _536
REMARK  219  A    between atoms: _536  and  _537
REMARK  220  A    between atoms: _536  and  _539
REMARK  221  A    between atoms: _539  and  _540
REMARK  222  A    between atoms: _540  and  _541
REMARK  223  A    between atoms: _541  and  _542
REMARK  224  A    between atoms: _551  and  _553
REMARK  225  A    between atoms: _553  and  _554
REMARK  226  A    between atoms: _553  and  _556
REMARK  227  A    between atoms: _556  and  _557
REMARK                            x       y       z     vdW  Elec       q    Type
REMARK                         _______ _______ _______ _____ _____    ______ ____
ROOT
ATOM      1  O   HOH     1       9.518  13.214  17.705  0.00  0.00    +0.000 OA
ENDROOT
TORSDOF 0
REMARK  Name = ../refined-set-2016/3a2o/3a2o_pocket.pdb
REMARK  227 active torsions:
REMARK  status: ('A' for Active; 'I' for Inactive)
REMARK    1  A    between atoms: _1  and  _3
REMARK    2  A    between atoms: _3  and  _4
REMARK    3  A    between atoms: _3  and  _6
REMARK    4  A    between atoms: _6  and  _7
REMARK    5  A    between atoms: _7  and  _8
REMARK    6  A    between atoms: _8  and  _9
REMARK    7  A    between atoms: _18  and  _20
REMARK    8  A    between atoms: _20  and  _21
REMARK    9  A    between atoms: _20  and  _23
REMARK   10  A    between atoms: _23  and  _24
REMARK   11  A    between atoms: _27  and  _29
REMARK   12  A    between atoms: _29  and  _30
REMARK   13  A    between atoms: _29  and  _32
REMARK   14  A    between atoms: _32  and  _33
REMARK   15  A    between atoms: _36  and  _38
REMARK   16  A    between atoms: _38  and  _39
REMARK   17  A    between atoms: _38  and  _41
REMARK   18  A    between atoms: _41  and  _42
REMARK   19  A    between atoms: _45  and  _47
REMARK   20  A    between atoms: _47  and  _48
REMARK   21  A    between atoms: _47  and  _50
REMARK   22  A    between atoms: _50  and  _51
REMARK   23  A    between atoms: _54  and  _56
REMARK   24  A    between atoms: _56  and  _57
REMARK   25  A    between atoms: _59  and  _61
REMARK   26  A    between atoms: _61  and  _62
REMARK   27  A    between atoms: _65  and  _67
REMARK   28  A    between atoms: _67  and  _68
REMARK   29  A    between atoms: _67  and  _70
REMARK   30  A    between atoms: _70  and  _71
REMARK   31  A    between atoms: _74  and  _76
REMARK   32  A    between atoms: _76  and  _77
REMARK   33  A    between atoms: _76  and  _79
REMARK   34  A    between atoms: _79  and  _80
REMARK   35  A    between atoms: _83  and  _85
REMARK   36  A    between atoms: _85  and  _86
REMARK   37  A    between atoms: _85  and  _88
REMARK   38  A    between atoms: _88  and  _89
REMARK   39  A    between atoms: _92  and  _94
REMARK   40  A    between atoms: _94  and  _95
REMARK   41  A    between atoms: _94  and  _97
REMARK   42  A    between atoms: _100  and  _102
REMARK   43  A    between atoms: _102  and  _103
REMARK   44  A    between atoms: _102  and  _105
REMARK   45  A    between atoms: _106  and  _107
REMARK   46  A    between atoms: _107  and  _108
REMARK   47  A    between atoms: _108  and  _109
REMARK   48  A    between atoms: _113  and  _115
REMARK   49  A    between atoms: _115  and  _116
REMARK   50  A    between atoms: _115  and  _118
REMARK   51  A    between atoms: _118  and  _119
REMARK   52  A    between atoms: _119  and  _120
REMARK   53  A    between atoms: _122  and  _124
REMARK   54  A    between atoms: _124  and  _125
REMARK   55  A    between atoms: _124  and  _127
REMARK   56  A    between atoms: _127  and  _128
REMARK   57  A    between atoms: _131  and  _133
REMARK   58  A    between atoms: _133  and  _134
REMARK   59  A    between atoms: _136  and  _138
REMARK   60  A    between atoms: _138  and  _139
REMARK   61  A    between atoms: _141  and  _143
REMARK   62  A    between atoms: _143  and  _144
REMARK   63  A    between atoms: _143  and  _146
REMARK   64  A    between atoms: _146  and  _147
REMARK   65  A    between atoms: _150  and  _152
REMARK   66  A    between atoms: _152  and  _153
REMARK   67  A    between atoms: _155  and  _157
REMARK   68  A    between atoms: _157  and  _158
REMARK   69  A    between atoms: _160  and  _162
REMARK   70  A    between atoms: _162  and  _163
REMARK   71  A    between atoms: _162  and  _165
REMARK   72  A    between atoms: _165  and  _166
REMARK   73  A    between atoms: _169  and  _171
REMARK   74  A    between atoms: _171  and  _172
REMARK   75  A    between atoms: _171  and  _174
REMARK   76  A    between atoms: _177  and  _179
REMARK   77  A    between atoms: _179  and  _180
REMARK   78  A    between atoms: _179  and  _182
REMARK   79  A    between atoms: _182  and  _183
REMARK   80  A    between atoms: _187  and  _188
REMARK   81  A    between atoms: _193  and  _195
REMARK   82  A    between atoms: _195  and  _196
REMARK   83  A    between atoms: _195  and  _198
REMARK   84  A    between atoms: _198  and  _199
REMARK   85  A    between atoms: _203  and  _204
REMARK   86  A    between atoms: _209  and  _211
REMARK   87  A    between atoms: _211  and  _212
REMARK   88  A    between atoms: _211  and  _214
REMARK   89  A    between atoms: _217  and  _219
REMARK   90  A    between atoms: _219  and  _220
REMARK   91  A    between atoms: _219  and  _222
REMARK   92  A    between atoms: _222  and  _223
REMARK   93  A    between atoms: _228  and  _230
REMARK   94  A    between atoms: _230  and  _231
REMARK   95  A    between atoms: _230  and  _233
REMARK   96  A    between atoms: _233  and  _234
REMARK   97  A    between atoms: _237  and  _239
REMARK   98  A    between atoms: _239  and  _240
REMARK   99  A    between atoms: _239  and  _242
REMARK  100  A    between atoms: _242  and  _243
REMARK  101  A    between atoms: _246  and  _248
REMARK  102  A    between atoms: _248  and  _249
REMARK  103  A    between atoms: _251  and  _253
REMARK  104  A    between atoms: _253  and  _254
REMARK  105  A    between atoms: _253  and  _256
REMARK  106  A    between atoms: _256  and  _257
REMARK  107  A    between atoms: _257  and  _258
REMARK  108  A    between atoms: _258  and  _259
REMARK  109  A    between atoms: _268  and  _270
REMARK  110  A    between atoms: _270  and  _271
REMARK  111  A    between atoms: _270  and  _273
REMARK  112  A    between atoms: _273  and  _274
REMARK  113  A    between atoms: _279  and  _281
REMARK  114  A    between atoms: _281  and  _282
REMARK  115  A    between atoms: _281  and  _284
REMARK  116  A    between atoms: _284  and  _285
REMARK  117  A    between atoms: _285  and  _286
REMARK  118  A    between atoms: _286  and  _287
REMARK  119  A    between atoms: _296  and  _298
REMARK  120  A    between atoms: _298  and  _299
REMARK  121  A    between atoms: _298  and  _301
REMARK  122  A    between atoms: _301  and  _302
REMARK  123  A    between atoms: _305  and  _307
REMARK  124  A    between atoms: _307  and  _308
REMARK  125  A    between atoms: _307  and  _310
REMARK  126  A    between atoms: _310  and  _311
REMARK  127  A    between atoms: _314  and  _316
REMARK  128  A    between atoms: _316  and  _317
REMARK  129  A    between atoms: _316  and  _319
REMARK  130  A    between atoms: _319  and  _320
REMARK  131  A    between atoms: _323  and  _325
REMARK  132  A    between atoms: _325  and  _326
REMARK  133  A    between atoms: _325  and  _328
REMARK  134  A    between atoms: _328  and  _329
REMARK  135  A    between atoms: _332  and  _334
REMARK  136  A    between atoms: _334  and  _335
REMARK  137  A    between atoms: _337  and  _339
REMARK  138  A    between atoms: _339  and  _340
REMARK  139  A    between atoms: _343  and  _345
REMARK  140  A    between atoms: _345  and  _346
REMARK  141  A    between atoms: _345  and  _348
REMARK  142  A    between atoms: _348  and  _349
REMARK  143  A    between atoms: _352  and  _354
REMARK  144  A    between atoms: _354  and  _355
REMARK  145  A    between atoms: _354  and  _357
REMARK  146  A    between atoms: _357  and  _358
REMARK  147  A    between atoms: _361  and  _363
REMARK  148  A    between atoms: _363  and  _364
REMARK  149  A    between atoms: _363  and  _366
REMARK  150  A    between atoms: _366  and  _367
REMARK  151  A    between atoms: _370  and  _372
REMARK  152  A    between atoms: _372  and  _373
REMARK  153  A    between atoms: _372  and  _375
REMARK  154  A    between atoms: _378  and  _380
REMARK  155  A    between atoms: _380  and  _381
REMARK  156  A    between atoms: _380  and  _383
REMARK  157  A    between atoms: _384  and  _385
REMARK  158  A    between atoms: _385  and  _386
REMARK  159  A    between atoms: _386  and  _387
REMARK  160  A    between atoms: _391  and  _393
REMARK  161  A    between atoms: _393  and  _394
REMARK  162  A    between atoms: _393  and  _396
REMARK  163  A    between atoms: _396  and  _397
REMARK  164  A    between atoms: _397  and  _398
REMARK  165  A    between atoms: _400  and  _402
REMARK  166  A    between atoms: _402  and  _403
REMARK  167  A    between atoms: _402  and  _405
REMARK  168  A    between atoms: _405  and  _406
REMARK  169  A    between atoms: _409  and  _411
REMARK  170  A    between atoms: _411  and  _412
REMARK  171  A    between atoms: _414  and  _416
REMARK  172  A    between atoms: _416  and  _417
REMARK  173  A    between atoms: _419  and  _421
REMARK  174  A    between atoms: _421  and  _422
REMARK  175  A    between atoms: _421  and  _424
REMARK  176  A    between atoms: _424  and  _425
REMARK  177  A    between atoms: _428  and  _430
REMARK  178  A    between atoms: _430  and  _431
REMARK  179  A    between atoms: _433  and  _435
REMARK  180  A    between atoms: _435  and  _436
REMARK  181  A    between atoms: _438  and  _440
REMARK  182  A    between atoms: _440  and  _441
REMARK  183  A    between atoms: _440  and  _443
REMARK  184  A    between atoms: _443  and  _444
REMARK  185  A    between atoms: _450  and  _452
REMARK  186  A    between atoms: _452  and  _453
REMARK  187  A    between atoms: _452  and  _455
REMARK  188  A    between atoms: _455  and  _456
REMARK  189  A    between atoms: _459  and  _461
REMARK  190  A    between atoms: _461  and  _462
REMARK  191  A    between atoms: _461  and  _464
REMARK  192  A    between atoms: _467  and  _469
REMARK  193  A    between atoms: _469  and  _470
REMARK  194  A    between atoms: _469  and  _472
REMARK  195  A    between atoms: _472  and  _473
REMARK  196  A    between atoms: _476  and  _478
REMARK  197  A    between atoms: _478  and  _479
REMARK  198  A    between atoms: _478  and  _481
REMARK  199  A    between atoms: _481  and  _482
REMARK  200  A    between atoms: _486  and  _487
REMARK  201  A    between atoms: _492  and  _494
REMARK  202  A    between atoms: _494  and  _495
REMARK  203  A    between atoms: _494  and  _497
REMARK  204  A    between atoms: _500  and  _502
REMARK  205  A    between atoms: _502  and  _503
REMARK  206  A    between atoms: _502  and  _505
REMARK  207  A    between atoms: _505  and  _506
REMARK  208  A    between atoms: _511  and  _513
REMARK  209  A    between atoms: _513  and  _514
REMARK  210  A    between atoms: _513  and  _516
REMARK  211  A    between atoms: _516  and  _517
REMARK  212  A    between atoms: _520  and  _522
REMARK  213  A    between atoms: _522  and  _523
REMARK  214  A    between atoms: _522  and  _525
REMARK  215  A    between atoms: _525  and  _526
REMARK  216  A    between atoms: _529  and  _531
REMARK  217  A    between atoms: _531  and  _532
REMARK  218  A    between atoms: _534  and  _536
REMARK  219  A    between atoms: _536  and  _537
REMARK  220  A    between atoms: _536  and  _539
REMARK  221  A    between atoms: _539  and  _540
REMARK  222  A    between atoms: _540  and  _541
REMARK  223  A    between atoms: _541  and  _542
REMARK  224  A    between atoms: _551  and  _553
REMARK  225  A    between atoms: _553  and  _554
REMARK  226  A    between atoms: _553  and  _556
REMARK  227  A    between atoms: _556  and  _557
REMARK                            x       y       z     vdW  Elec       q    Type
REMARK                         _______ _______ _______ _____ _____    ______ ____
ROOT
ATOM      1  O   HOH     1       6.730  15.491  25.924  0.00  0.00    +0.000 OA
ENDROOT
TORSDOF 0
REMARK  Name = ../refined-set-2016/3a2o/3a2o_pocket.pdb
REMARK  227 active torsions:
REMARK  status: ('A' for Active; 'I' for Inactive)
REMARK    1  A    between atoms: _1  and  _3
REMARK    2  A    between atoms: _3  and  _4
REMARK    3  A    between atoms: _3  and  _6
REMARK    4  A    between atoms: _6  and  _7
REMARK    5  A    between atoms: _7  and  _8
REMARK    6  A    between atoms: _8  and  _9
REMARK    7  A    between atoms: _18  and  _20
REMARK    8  A    between atoms: _20  and  _21
REMARK    9  A    between atoms: _20  and  _23
REMARK   10  A    between atoms: _23  and  _24
REMARK   11  A    between atoms: _27  and  _29
REMARK   12  A    between atoms: _29  and  _30
REMARK   13  A    between atoms: _29  and  _32
REMARK   14  A    between atoms: _32  and  _33
REMARK   15  A    between atoms: _36  and  _38
REMARK   16  A    between atoms: _38  and  _39
REMARK   17  A    between atoms: _38  and  _41
REMARK   18  A    between atoms: _41  and  _42
REMARK   19  A    between atoms: _45  and  _47
REMARK   20  A    between atoms: _47  and  _48
REMARK   21  A    between atoms: _47  and  _50
REMARK   22  A    between atoms: _50  and  _51
REMARK   23  A    between atoms: _54  and  _56
REMARK   24  A    between atoms: _56  and  _57
REMARK   25  A    between atoms: _59  and  _61
REMARK   26  A    between atoms: _61  and  _62
REMARK   27  A    between atoms: _65  and  _67
REMARK   28  A    between atoms: _67  and  _68
REMARK   29  A    between atoms: _67  and  _70
REMARK   30  A    between atoms: _70  and  _71
REMARK   31  A    between atoms: _74  and  _76
REMARK   32  A    between atoms: _76  and  _77
REMARK   33  A    between atoms: _76  and  _79
REMARK   34  A    between atoms: _79  and  _80
REMARK   35  A    between atoms: _83  and  _85
REMARK   36  A    between atoms: _85  and  _86
REMARK   37  A    between atoms: _85  and  _88
REMARK   38  A    between atoms: _88  and  _89
REMARK   39  A    between atoms: _92  and  _94
REMARK   40  A    between atoms: _94  and  _95
REMARK   41  A    between atoms: _94  and  _97
REMARK   42  A    between atoms: _100  and  _102
REMARK   43  A    between atoms: _102  and  _103
REMARK   44  A    between atoms: _102  and  _105
REMARK   45  A    between atoms: _106  and  _107
REMARK   46  A    between atoms: _107  and  _108
REMARK   47  A    between atoms: _108  and  _109
REMARK   48  A    between atoms: _113  and  _115
REMARK   49  A    between atoms: _115  and  _116
REMARK   50  A    between atoms: _115  and  _118
REMARK   51  A    between atoms: _118  and  _119
REMARK   52  A    between atoms: _119  and  _120
REMARK   53  A    between atoms: _122  and  _124
REMARK   54  A    between atoms: _124  and  _125
REMARK   55  A    between atoms: _124  and  _127
REMARK   56  A    between atoms: _127  and  _128
REMARK   57  A    between atoms: _131  and  _133
REMARK   58  A    between atoms: _133  and  _134
REMARK   59  A    between atoms: _136  and  _138
REMARK   60  A    between atoms: _138  and  _139
REMARK   61  A    between atoms: _141  and  _143
REMARK   62  A    between atoms: _143  and  _144
REMARK   63  A    between atoms: _143  and  _146
REMARK   64  A    between atoms: _146  and  _147
REMARK   65  A    between atoms: _150  and  _152
REMARK   66  A    between atoms: _152  and  _153
REMARK   67  A    between atoms: _155  and  _157
REMARK   68  A    between atoms: _157  and  _158
REMARK   69  A    between atoms: _160  and  _162
REMARK   70  A    between atoms: _162  and  _163
REMARK   71  A    between atoms: _162  and  _165
REMARK   72  A    between atoms: _165  and  _166
REMARK   73  A    between atoms: _169  and  _171
REMARK   74  A    between atoms: _171  and  _172
REMARK   75  A    between atoms: _171  and  _174
REMARK   76  A    between atoms: _177  and  _179
REMARK   77  A    between atoms: _179  and  _180
REMARK   78  A    between atoms: _179  and  _182
REMARK   79  A    between atoms: _182  and  _183
REMARK   80  A    between atoms: _187  and  _188
REMARK   81  A    between atoms: _193  and  _195
REMARK   82  A    between atoms: _195  and  _196
REMARK   83  A    between atoms: _195  and  _198
REMARK   84  A    between atoms: _198  and  _199
REMARK   85  A    between atoms: _203  and  _204
REMARK   86  A    between atoms: _209  and  _211
REMARK   87  A    between atoms: _211  and  _212
REMARK   88  A    between atoms: _211  and  _214
REMARK   89  A    between atoms: _217  and  _219
REMARK   90  A    between atoms: _219  and  _220
REMARK   91  A    between atoms: _219  and  _222
REMARK   92  A    between atoms: _222  and  _223
REMARK   93  A    between atoms: _228  and  _230
REMARK   94  A    between atoms: _230  and  _231
REMARK   95  A    between atoms: _230  and  _233
REMARK   96  A    between atoms: _233  and  _234
REMARK   97  A    between atoms: _237  and  _239
REMARK   98  A    between atoms: _239  and  _240
REMARK   99  A    between atoms: _239  and  _242
REMARK  100  A    between atoms: _242  and  _243
REMARK  101  A    between atoms: _246  and  _248
REMARK  102  A    between atoms: _248  and  _249
REMARK  103  A    between atoms: _251  and  _253
REMARK  104  A    between atoms: _253  and  _254
REMARK  105  A    between atoms: _253  and  _256
REMARK  106  A    between atoms: _256  and  _257
REMARK  107  A    between atoms: _257  and  _258
REMARK  108  A    between atoms: _258  and  _259
REMARK  109  A    between atoms: _268  and  _270
REMARK  110  A    between atoms: _270  and  _271
REMARK  111  A    between atoms: _270  and  _273
REMARK  112  A    between atoms: _273  and  _274
REMARK  113  A    between atoms: _279  and  _281
REMARK  114  A    between atoms: _281  and  _282
REMARK  115  A    between atoms: _281  and  _284
REMARK  116  A    between atoms: _284  and  _285
REMARK  117  A    between atoms: _285  and  _286
REMARK  118  A    between atoms: _286  and  _287
REMARK  119  A    between atoms: _296  and  _298
REMARK  120  A    between atoms: _298  and  _299
REMARK  121  A    between atoms: _298  and  _301
REMARK  122  A    between atoms: _301  and  _302
REMARK  123  A    between atoms: _305  and  _307
REMARK  124  A    between atoms: _307  and  _308
REMARK  125  A    between atoms: _307  and  _310
REMARK  126  A    between atoms: _310  and  _311
REMARK  127  A    between atoms: _314  and  _316
REMARK  128  A    between atoms: _316  and  _317
REMARK  129  A    between atoms: _316  and  _319
REMARK  130  A    between atoms: _319  and  _320
REMARK  131  A    between atoms: _323  and  _325
REMARK  132  A    between atoms: _325  and  _326
REMARK  133  A    between atoms: _325  and  _328
REMARK  134  A    between atoms: _328  and  _329
REMARK  135  A    between atoms: _332  and  _334
REMARK  136  A    between atoms: _334  and  _335
REMARK  137  A    between atoms: _337  and  _339
REMARK  138  A    between atoms: _339  and  _340
REMARK  139  A    between atoms: _343  and  _345
REMARK  140  A    between atoms: _345  and  _346
REMARK  141  A    between atoms: _345  and  _348
REMARK  142  A    between atoms: _348  and  _349
REMARK  143  A    between atoms: _352  and  _354
REMARK  144  A    between atoms: _354  and  _355
REMARK  145  A    between atoms: _354  and  _357
REMARK  146  A    between atoms: _357  and  _358
REMARK  147  A    between atoms: _361  and  _363
REMARK  148  A    between atoms: _363  and  _364
REMARK  149  A    between atoms: _363  and  _366
REMARK  150  A    between atoms: _366  and  _367
REMARK  151  A    between atoms: _370  and  _372
REMARK  152  A    between atoms: _372  and  _373
REMARK  153  A    between atoms: _372  and  _375
REMARK  154  A    between atoms: _378  and  _380
REMARK  155  A    between atoms: _380  and  _381
REMARK  156  A    between atoms: _380  and  _383
REMARK  157  A    between atoms: _384  and  _385
REMARK  158  A    between atoms: _385  and  _386
REMARK  159  A    between atoms: _386  and  _387
REMARK  160  A    between atoms: _391  and  _393
REMARK  161  A    between atoms: _393  and  _394
REMARK  162  A    between atoms: _393  and  _396
REMARK  163  A    between atoms: _396  and  _397
REMARK  164  A    between atoms: _397  and  _398
REMARK  165  A    between atoms: _400  and  _402
REMARK  166  A    between atoms: _402  and  _403
REMARK  167  A    between atoms: _402  and  _405
REMARK  168  A    between atoms: _405  and  _406
REMARK  169  A    between atoms: _409  and  _411
REMARK  170  A    between atoms: _411  and  _412
REMARK  171  A    between atoms: _414  and  _416
REMARK  172  A    between atoms: _416  and  _417
REMARK  173  A    between atoms: _419  and  _421
REMARK  174  A    between atoms: _421  and  _422
REMARK  175  A    between atoms: _421  and  _424
REMARK  176  A    between atoms: _424  and  _425
REMARK  177  A    between atoms: _428  and  _430
REMARK  178  A    between atoms: _430  and  _431
REMARK  179  A    between atoms: _433  and  _435
REMARK  180  A    between atoms: _435  and  _436
REMARK  181  A    between atoms: _438  and  _440
REMARK  182  A    between atoms: _440  and  _441
REMARK  183  A    between atoms: _440  and  _443
REMARK  184  A    between atoms: _443  and  _444
REMARK  185  A    between atoms: _450  and  _452
REMARK  186  A    between atoms: _452  and  _453
REMARK  187  A    between atoms: _452  and  _455
REMARK  188  A    between atoms: _455  and  _456
REMARK  189  A    between atoms: _459  and  _461
REMARK  190  A    between atoms: _461  and  _462
REMARK  191  A    between atoms: _461  and  _464
REMARK  192  A    between atoms: _467  and  _469
REMARK  193  A    between atoms: _469  and  _470
REMARK  194  A    between atoms: _469  and  _472
REMARK  195  A    between atoms: _472  and  _473
REMARK  196  A    between atoms: _476  and  _478
REMARK  197  A    between atoms: _478  and  _479
REMARK  198  A    between atoms: _478  and  _481
REMARK  199  A    between atoms: _481  and  _482
REMARK  200  A    between atoms: _486  and  _487
REMARK  201  A    between atoms: _492  and  _494
REMARK  202  A    between atoms: _494  and  _495
REMARK  203  A    between atoms: _494  and  _497
REMARK  204  A    between atoms: _500  and  _502
REMARK  205  A    between atoms: _502  and  _503
REMARK  206  A    between atoms: _502  and  _505
REMARK  207  A    between atoms: _505  and  _506
REMARK  208  A    between atoms: _511  and  _513
REMARK  209  A    between atoms: _513  and  _514
REMARK  210  A    between atoms: _513  and  _516
REMARK  211  A    between atoms: _516  and  _517
REMARK  212  A    between atoms: _520  and  _522
REMARK  213  A    between atoms: _522  and  _523
REMARK  214  A    between atoms: _522  and  _525
REMARK  215  A    between atoms: _525  and  _526
REMARK  216  A    between atoms: _529  and  _531
REMARK  217  A    between atoms: _531  and  _532
REMARK  218  A    between atoms: _534  and  _536
REMARK  219  A    between atoms: _536  and  _537
REMARK  220  A    between atoms: _536  and  _539
REMARK  221  A    between atoms: _539  and  _540
REMARK  222  A    between atoms: _540  and  _541
REMARK  223  A    between atoms: _541  and  _542
REMARK  224  A    between atoms: _551  and  _553
REMARK  225  A    between atoms: _553  and  _554
REMARK  226  A    between atoms: _553  and  _556
REMARK  227  A    between atoms: _556  and  _557
REMARK                            x       y       z     vdW  Elec       q    Type
REMARK                         _______ _______ _______ _____ _____    ______ ____
ROOT
ATOM      1  O   HOH     1       5.971  15.651  19.100  0.00  0.00    +0.000 OA
ENDROOT
TORSDOF 0
REMARK  Name = ../refined-set-2016/3a2o/3a2o_pocket.pdb
REMARK  227 active torsions:
REMARK  status: ('A' for Active; 'I' for Inactive)
REMARK    1  A    between atoms: _1  and  _3
REMARK    2  A    between atoms: _3  and  _4
REMARK    3  A    between atoms: _3  and  _6
REMARK    4  A    between atoms: _6  and  _7
REMARK    5  A    between atoms: _7  and  _8
REMARK    6  A    between atoms: _8  and  _9
REMARK    7  A    between atoms: _18  and  _20
REMARK    8  A    between atoms: _20  and  _21
REMARK    9  A    between atoms: _20  and  _23
REMARK   10  A    between atoms: _23  and  _24
REMARK   11  A    between atoms: _27  and  _29
REMARK   12  A    between atoms: _29  and  _30
REMARK   13  A    between atoms: _29  and  _32
REMARK   14  A    between atoms: _32  and  _33
REMARK   15  A    between atoms: _36  and  _38
REMARK   16  A    between atoms: _38  and  _39
REMARK   17  A    between atoms: _38  and  _41
REMARK   18  A    between atoms: _41  and  _42
REMARK   19  A    between atoms: _45  and  _47
REMARK   20  A    between atoms: _47  and  _48
REMARK   21  A    between atoms: _47  and  _50
REMARK   22  A    between atoms: _50  and  _51
REMARK   23  A    between atoms: _54  and  _56
REMARK   24  A    between atoms: _56  and  _57
REMARK   25  A    between atoms: _59  and  _61
REMARK   26  A    between atoms: _61  and  _62
REMARK   27  A    between atoms: _65  and  _67
REMARK   28  A    between atoms: _67  and  _68
REMARK   29  A    between atoms: _67  and  _70
REMARK   30  A    between atoms: _70  and  _71
REMARK   31  A    between atoms: _74  and  _76
REMARK   32  A    between atoms: _76  and  _77
REMARK   33  A    between atoms: _76  and  _79
REMARK   34  A    between atoms: _79  and  _80
REMARK   35  A    between atoms: _83  and  _85
REMARK   36  A    between atoms: _85  and  _86
REMARK   37  A    between atoms: _85  and  _88
REMARK   38  A    between atoms: _88  and  _89
REMARK   39  A    between atoms: _92  and  _94
REMARK   40  A    between atoms: _94  and  _95
REMARK   41  A    between atoms: _94  and  _97
REMARK   42  A    between atoms: _100  and  _102
REMARK   43  A    between atoms: _102  and  _103
REMARK   44  A    between atoms: _102  and  _105
REMARK   45  A    between atoms: _106  and  _107
REMARK   46  A    between atoms: _107  and  _108
REMARK   47  A    between atoms: _108  and  _109
REMARK   48  A    between atoms: _113  and  _115
REMARK   49  A    between atoms: _115  and  _116
REMARK   50  A    between atoms: _115  and  _118
REMARK   51  A    between atoms: _118  and  _119
REMARK   52  A    between atoms: _119  and  _120
REMARK   53  A    between atoms: _122  and  _124
REMARK   54  A    between atoms: _124  and  _125
REMARK   55  A    between atoms: _124  and  _127
REMARK   56  A    between atoms: _127  and  _128
REMARK   57  A    between atoms: _131  and  _133
REMARK   58  A    between atoms: _133  and  _134
REMARK   59  A    between atoms: _136  and  _138
REMARK   60  A    between atoms: _138  and  _139
REMARK   61  A    between atoms: _141  and  _143
REMARK   62  A    between atoms: _143  and  _144
REMARK   63  A    between atoms: _143  and  _146
REMARK   64  A    between atoms: _146  and  _147
REMARK   65  A    between atoms: _150  and  _152
REMARK   66  A    between atoms: _152  and  _153
REMARK   67  A    between atoms: _155  and  _157
REMARK   68  A    between atoms: _157  and  _158
REMARK   69  A    between atoms: _160  and  _162
REMARK   70  A    between atoms: _162  and  _163
REMARK   71  A    between atoms: _162  and  _165
REMARK   72  A    between atoms: _165  and  _166
REMARK   73  A    between atoms: _169  and  _171
REMARK   74  A    between atoms: _171  and  _172
REMARK   75  A    between atoms: _171  and  _174
REMARK   76  A    between atoms: _177  and  _179
REMARK   77  A    between atoms: _179  and  _180
REMARK   78  A    between atoms: _179  and  _182
REMARK   79  A    between atoms: _182  and  _183
REMARK   80  A    between atoms: _187  and  _188
REMARK   81  A    between atoms: _193  and  _195
REMARK   82  A    between atoms: _195  and  _196
REMARK   83  A    between atoms: _195  and  _198
REMARK   84  A    between atoms: _198  and  _199
REMARK   85  A    between atoms: _203  and  _204
REMARK   86  A    between atoms: _209  and  _211
REMARK   87  A    between atoms: _211  and  _212
REMARK   88  A    between atoms: _211  and  _214
REMARK   89  A    between atoms: _217  and  _219
REMARK   90  A    between atoms: _219  and  _220
REMARK   91  A    between atoms: _219  and  _222
REMARK   92  A    between atoms: _222  and  _223
REMARK   93  A    between atoms: _228  and  _230
REMARK   94  A    between atoms: _230  and  _231
REMARK   95  A    between atoms: _230  and  _233
REMARK   96  A    between atoms: _233  and  _234
REMARK   97  A    between atoms: _237  and  _239
REMARK   98  A    between atoms: _239  and  _240
REMARK   99  A    between atoms: _239  and  _242
REMARK  100  A    between atoms: _242  and  _243
REMARK  101  A    between atoms: _246  and  _248
REMARK  102  A    between atoms: _248  and  _249
REMARK  103  A    between atoms: _251  and  _253
REMARK  104  A    between atoms: _253  and  _254
REMARK  105  A    between atoms: _253  and  _256
REMARK  106  A    between atoms: _256  and  _257
REMARK  107  A    between atoms: _257  and  _258
REMARK  108  A    between atoms: _258  and  _259
REMARK  109  A    between atoms: _268  and  _270
REMARK  110  A    between atoms: _270  and  _271
REMARK  111  A    between atoms: _270  and  _273
REMARK  112  A    between atoms: _273  and  _274
REMARK  113  A    between atoms: _279  and  _281
REMARK  114  A    between atoms: _281  and  _282
REMARK  115  A    between atoms: _281  and  _284
REMARK  116  A    between atoms: _284  and  _285
REMARK  117  A    between atoms: _285  and  _286
REMARK  118  A    between atoms: _286  and  _287
REMARK  119  A    between atoms: _296  and  _298
REMARK  120  A    between atoms: _298  and  _299
REMARK  121  A    between atoms: _298  and  _301
REMARK  122  A    between atoms: _301  and  _302
REMARK  123  A    between atoms: _305  and  _307
REMARK  124  A    between atoms: _307  and  _308
REMARK  125  A    between atoms: _307  and  _310
REMARK  126  A    between atoms: _310  and  _311
REMARK  127  A    between atoms: _314  and  _316
REMARK  128  A    between atoms: _316  and  _317
REMARK  129  A    between atoms: _316  and  _319
REMARK  130  A    between atoms: _319  and  _320
REMARK  131  A    between atoms: _323  and  _325
REMARK  132  A    between atoms: _325  and  _326
REMARK  133  A    between atoms: _325  and  _328
REMARK  134  A    between atoms: _328  and  _329
REMARK  135  A    between atoms: _332  and  _334
REMARK  136  A    between atoms: _334  and  _335
REMARK  137  A    between atoms: _337  and  _339
REMARK  138  A    between atoms: _339  and  _340
REMARK  139  A    between atoms: _343  and  _345
REMARK  140  A    between atoms: _345  and  _346
REMARK  141  A    between atoms: _345  and  _348
REMARK  142  A    between atoms: _348  and  _349
REMARK  143  A    between atoms: _352  and  _354
REMARK  144  A    between atoms: _354  and  _355
REMARK  145  A    between atoms: _354  and  _357
REMARK  146  A    between atoms: _357  and  _358
REMARK  147  A    between atoms: _361  and  _363
REMARK  148  A    between atoms: _363  and  _364
REMARK  149  A    between atoms: _363  and  _366
REMARK  150  A    between atoms: _366  and  _367
REMARK  151  A    between atoms: _370  and  _372
REMARK  152  A    between atoms: _372  and  _373
REMARK  153  A    between atoms: _372  and  _375
REMARK  154  A    between atoms: _378  and  _380
REMARK  155  A    between atoms: _380  and  _381
REMARK  156  A    between atoms: _380  and  _383
REMARK  157  A    between atoms: _384  and  _385
REMARK  158  A    between atoms: _385  and  _386
REMARK  159  A    between atoms: _386  and  _387
REMARK  160  A    between atoms: _391  and  _393
REMARK  161  A    between atoms: _393  and  _394
REMARK  162  A    between atoms: _393  and  _396
REMARK  163  A    between atoms: _396  and  _397
REMARK  164  A    between atoms: _397  and  _398
REMARK  165  A    between atoms: _400  and  _402
REMARK  166  A    between atoms: _402  and  _403
REMARK  167  A    between atoms: _402  and  _405
REMARK  168  A    between atoms: _405  and  _406
REMARK  169  A    between atoms: _409  and  _411
REMARK  170  A    between atoms: _411  and  _412
REMARK  171  A    between atoms: _414  and  _416
REMARK  172  A    between atoms: _416  and  _417
REMARK  173  A    between atoms: _419  and  _421
REMARK  174  A    between atoms: _421  and  _422
REMARK  175  A    between atoms: _421  and  _424
REMARK  176  A    between atoms: _424  and  _425
REMARK  177  A    between atoms: _428  and  _430
REMARK  178  A    between atoms: _430  and  _431
REMARK  179  A    between atoms: _433  and  _435
REMARK  180  A    between atoms: _435  and  _436
REMARK  181  A    between atoms: _438  and  _440
REMARK  182  A    between atoms: _440  and  _441
REMARK  183  A    between atoms: _440  and  _443
REMARK  184  A    between atoms: _443  and  _444
REMARK  185  A    between atoms: _450  and  _452
REMARK  186  A    between atoms: _452  and  _453
REMARK  187  A    between atoms: _452  and  _455
REMARK  188  A    between atoms: _455  and  _456
REMARK  189  A    between atoms: _459  and  _461
REMARK  190  A    between atoms: _461  and  _462
REMARK  191  A    between atoms: _461  and  _464
REMARK  192  A    between atoms: _467  and  _469
REMARK  193  A    between atoms: _469  and  _470
REMARK  194  A    between atoms: _469  and  _472
REMARK  195  A    between atoms: _472  and  _473
REMARK  196  A    between atoms: _476  and  _478
REMARK  197  A    between atoms: _478  and  _479
REMARK  198  A    between atoms: _478  and  _481
REMARK  199  A    between atoms: _481  and  _482
REMARK  200  A    between atoms: _486  and  _487
REMARK  201  A    between atoms: _492  and  _494
REMARK  202  A    between atoms: _494  and  _495
REMARK  203  A    between atoms: _494  and  _497
REMARK  204  A    between atoms: _500  and  _502
REMARK  205  A    between atoms: _502  and  _503
REMARK  206  A    between atoms: _502  and  _505
REMARK  207  A    between atoms: _505  and  _506
REMARK  208  A    between atoms: _511  and  _513
REMARK  209  A    between atoms: _513  and  _514
REMARK  210  A    between atoms: _513  and  _516
REMARK  211  A    between atoms: _516  and  _517
REMARK  212  A    between atoms: _520  and  _522
REMARK  213  A    between atoms: _522  and  _523
REMARK  214  A    between atoms: _522  and  _525
REMARK  215  A    between atoms: _525  and  _526
REMARK  216  A    between atoms: _529  and  _531
REMARK  217  A    between atoms: _531  and  _532
REMARK  218  A    between atoms: _534  and  _536
REMARK  219  A    between atoms: _536  and  _537
REMARK  220  A    between atoms: _536  and  _539
REMARK  221  A    between atoms: _539  and  _540
REMARK  222  A    between atoms: _540  and  _541
REMARK  223  A    between atoms: _541  and  _542
REMARK  224  A    between atoms: _551  and  _553
REMARK  225  A    between atoms: _553  and  _554
REMARK  226  A    between atoms: _553  and  _556
REMARK  227  A    between atoms: _556  and  _557
REMARK                            x       y       z     vdW  Elec       q    Type
REMARK                         _______ _______ _______ _____ _____    ______ ____
ROOT
ATOM      1  O   HOH     1       6.678  12.624  24.968  0.00  0.00    +0.000 OA
ENDROOT
TORSDOF 0
REMARK  Name = ../refined-set-2016/3a2o/3a2o_pocket.pdb
REMARK  227 active torsions:
REMARK  status: ('A' for Active; 'I' for Inactive)
REMARK    1  A    between atoms: _1  and  _3
REMARK    2  A    between atoms: _3  and  _4
REMARK    3  A    between atoms: _3  and  _6
REMARK    4  A    between atoms: _6  and  _7
REMARK    5  A    between atoms: _7  and  _8
REMARK    6  A    between atoms: _8  and  _9
REMARK    7  A    between atoms: _18  and  _20
REMARK    8  A    between atoms: _20  and  _21
REMARK    9  A    between atoms: _20  and  _23
REMARK   10  A    between atoms: _23  and  _24
REMARK   11  A    between atoms: _27  and  _29
REMARK   12  A    between atoms: _29  and  _30
REMARK   13  A    between atoms: _29  and  _32
REMARK   14  A    between atoms: _32  and  _33
REMARK   15  A    between atoms: _36  and  _38
REMARK   16  A    between atoms: _38  and  _39
REMARK   17  A    between atoms: _38  and  _41
REMARK   18  A    between atoms: _41  and  _42
REMARK   19  A    between atoms: _45  and  _47
REMARK   20  A    between atoms: _47  and  _48
REMARK   21  A    between atoms: _47  and  _50
REMARK   22  A    between atoms: _50  and  _51
REMARK   23  A    between atoms: _54  and  _56
REMARK   24  A    between atoms: _56  and  _57
REMARK   25  A    between atoms: _59  and  _61
REMARK   26  A    between atoms: _61  and  _62
REMARK   27  A    between atoms: _65  and  _67
REMARK   28  A    between atoms: _67  and  _68
REMARK   29  A    between atoms: _67  and  _70
REMARK   30  A    between atoms: _70  and  _71
REMARK   31  A    between atoms: _74  and  _76
REMARK   32  A    between atoms: _76  and  _77
REMARK   33  A    between atoms: _76  and  _79
REMARK   34  A    between atoms: _79  and  _80
REMARK   35  A    between atoms: _83  and  _85
REMARK   36  A    between atoms: _85  and  _86
REMARK   37  A    between atoms: _85  and  _88
REMARK   38  A    between atoms: _88  and  _89
REMARK   39  A    between atoms: _92  and  _94
REMARK   40  A    between atoms: _94  and  _95
REMARK   41  A    between atoms: _94  and  _97
REMARK   42  A    between atoms: _100  and  _102
REMARK   43  A    between atoms: _102  and  _103
REMARK   44  A    between atoms: _102  and  _105
REMARK   45  A    between atoms: _106  and  _107
REMARK   46  A    between atoms: _107  and  _108
REMARK   47  A    between atoms: _108  and  _109
REMARK   48  A    between atoms: _113  and  _115
REMARK   49  A    between atoms: _115  and  _116
REMARK   50  A    between atoms: _115  and  _118
REMARK   51  A    between atoms: _118  and  _119
REMARK   52  A    between atoms: _119  and  _120
REMARK   53  A    between atoms: _122  and  _124
REMARK   54  A    between atoms: _124  and  _125
REMARK   55  A    between atoms: _124  and  _127
REMARK   56  A    between atoms: _127  and  _128
REMARK   57  A    between atoms: _131  and  _133
REMARK   58  A    between atoms: _133  and  _134
REMARK   59  A    between atoms: _136  and  _138
REMARK   60  A    between atoms: _138  and  _139
REMARK   61  A    between atoms: _141  and  _143
REMARK   62  A    between atoms: _143  and  _144
REMARK   63  A    between atoms: _143  and  _146
REMARK   64  A    between atoms: _146  and  _147
REMARK   65  A    between atoms: _150  and  _152
REMARK   66  A    between atoms: _152  and  _153
REMARK   67  A    between atoms: _155  and  _157
REMARK   68  A    between atoms: _157  and  _158
REMARK   69  A    between atoms: _160  and  _162
REMARK   70  A    between atoms: _162  and  _163
REMARK   71  A    between atoms: _162  and  _165
REMARK   72  A    between atoms: _165  and  _166
REMARK   73  A    between atoms: _169  and  _171
REMARK   74  A    between atoms: _171  and  _172
REMARK   75  A    between atoms: _171  and  _174
REMARK   76  A    between atoms: _177  and  _179
REMARK   77  A    between atoms: _179  and  _180
REMARK   78  A    between atoms: _179  and  _182
REMARK   79  A    between atoms: _182  and  _183
REMARK   80  A    between atoms: _187  and  _188
REMARK   81  A    between atoms: _193  and  _195
REMARK   82  A    between atoms: _195  and  _196
REMARK   83  A    between atoms: _195  and  _198
REMARK   84  A    between atoms: _198  and  _199
REMARK   85  A    between atoms: _203  and  _204
REMARK   86  A    between atoms: _209  and  _211
REMARK   87  A    between atoms: _211  and  _212
REMARK   88  A    between atoms: _211  and  _214
REMARK   89  A    between atoms: _217  and  _219
REMARK   90  A    between atoms: _219  and  _220
REMARK   91  A    between atoms: _219  and  _222
REMARK   92  A    between atoms: _222  and  _223
REMARK   93  A    between atoms: _228  and  _230
REMARK   94  A    between atoms: _230  and  _231
REMARK   95  A    between atoms: _230  and  _233
REMARK   96  A    between atoms: _233  and  _234
REMARK   97  A    between atoms: _237  and  _239
REMARK   98  A    between atoms: _239  and  _240
REMARK   99  A    between atoms: _239  and  _242
REMARK  100  A    between atoms: _242  and  _243
REMARK  101  A    between atoms: _246  and  _248
REMARK  102  A    between atoms: _248  and  _249
REMARK  103  A    between atoms: _251  and  _253
REMARK  104  A    between atoms: _253  and  _254
REMARK  105  A    between atoms: _253  and  _256
REMARK  106  A    between atoms: _256  and  _257
REMARK  107  A    between atoms: _257  and  _258
REMARK  108  A    between atoms: _258  and  _259
REMARK  109  A    between atoms: _268  and  _270
REMARK  110  A    between atoms: _270  and  _271
REMARK  111  A    between atoms: _270  and  _273
REMARK  112  A    between atoms: _273  and  _274
REMARK  113  A    between atoms: _279  and  _281
REMARK  114  A    between atoms: _281  and  _282
REMARK  115  A    between atoms: _281  and  _284
REMARK  116  A    between atoms: _284  and  _285
REMARK  117  A    between atoms: _285  and  _286
REMARK  118  A    between atoms: _286  and  _287
REMARK  119  A    between atoms: _296  and  _298
REMARK  120  A    between atoms: _298  and  _299
REMARK  121  A    between atoms: _298  and  _301
REMARK  122  A    between atoms: _301  and  _302
REMARK  123  A    between atoms: _305  and  _307
REMARK  124  A    between atoms: _307  and  _308
REMARK  125  A    between atoms: _307  and  _310
REMARK  126  A    between atoms: _310  and  _311
REMARK  127  A    between atoms: _314  and  _316
REMARK  128  A    between atoms: _316  and  _317
REMARK  129  A    between atoms: _316  and  _319
REMARK  130  A    between atoms: _319  and  _320
REMARK  131  A    between atoms: _323  and  _325
REMARK  132  A    between atoms: _325  and  _326
REMARK  133  A    between atoms: _325  and  _328
REMARK  134  A    between atoms: _328  and  _329
REMARK  135  A    between atoms: _332  and  _334
REMARK  136  A    between atoms: _334  and  _335
REMARK  137  A    between atoms: _337  and  _339
REMARK  138  A    between atoms: _339  and  _340
REMARK  139  A    between atoms: _343  and  _345
REMARK  140  A    between atoms: _345  and  _346
REMARK  141  A    between atoms: _345  and  _348
REMARK  142  A    between atoms: _348  and  _349
REMARK  143  A    between atoms: _352  and  _354
REMARK  144  A    between atoms: _354  and  _355
REMARK  145  A    between atoms: _354  and  _357
REMARK  146  A    between atoms: _357  and  _358
REMARK  147  A    between atoms: _361  and  _363
REMARK  148  A    between atoms: _363  and  _364
REMARK  149  A    between atoms: _363  and  _366
REMARK  150  A    between atoms: _366  and  _367
REMARK  151  A    between atoms: _370  and  _372
REMARK  152  A    between atoms: _372  and  _373
REMARK  153  A    between atoms: _372  and  _375
REMARK  154  A    between atoms: _378  and  _380
REMARK  155  A    between atoms: _380  and  _381
REMARK  156  A    between atoms: _380  and  _383
REMARK  157  A    between atoms: _384  and  _385
REMARK  158  A    between atoms: _385  and  _386
REMARK  159  A    between atoms: _386  and  _387
REMARK  160  A    between atoms: _391  and  _393
REMARK  161  A    between atoms: _393  and  _394
REMARK  162  A    between atoms: _393  and  _396
REMARK  163  A    between atoms: _396  and  _397
REMARK  164  A    between atoms: _397  and  _398
REMARK  165  A    between atoms: _400  and  _402
REMARK  166  A    between atoms: _402  and  _403
REMARK  167  A    between atoms: _402  and  _405
REMARK  168  A    between atoms: _405  and  _406
REMARK  169  A    between atoms: _409  and  _411
REMARK  170  A    between atoms: _411  and  _412
REMARK  171  A    between atoms: _414  and  _416
REMARK  172  A    between atoms: _416  and  _417
REMARK  173  A    between atoms: _419  and  _421
REMARK  174  A    between atoms: _421  and  _422
REMARK  175  A    between atoms: _421  and  _424
REMARK  176  A    between atoms: _424  and  _425
REMARK  177  A    between atoms: _428  and  _430
REMARK  178  A    between atoms: _430  and  _431
REMARK  179  A    between atoms: _433  and  _435
REMARK  180  A    between atoms: _435  and  _436
REMARK  181  A    between atoms: _438  and  _440
REMARK  182  A    between atoms: _440  and  _441
REMARK  183  A    between atoms: _440  and  _443
REMARK  184  A    between atoms: _443  and  _444
REMARK  185  A    between atoms: _450  and  _452
REMARK  186  A    between atoms: _452  and  _453
REMARK  187  A    between atoms: _452  and  _455
REMARK  188  A    between atoms: _455  and  _456
REMARK  189  A    between atoms: _459  and  _461
REMARK  190  A    between atoms: _461  and  _462
REMARK  191  A    between atoms: _461  and  _464
REMARK  192  A    between atoms: _467  and  _469
REMARK  193  A    between atoms: _469  and  _470
REMARK  194  A    between atoms: _469  and  _472
REMARK  195  A    between atoms: _472  and  _473
REMARK  196  A    between atoms: _476  and  _478
REMARK  197  A    between atoms: _478  and  _479
REMARK  198  A    between atoms: _478  and  _481
REMARK  199  A    between atoms: _481  and  _482
REMARK  200  A    between atoms: _486  and  _487
REMARK  201  A    between atoms: _492  and  _494
REMARK  202  A    between atoms: _494  and  _495
REMARK  203  A    between atoms: _494  and  _497
REMARK  204  A    between atoms: _500  and  _502
REMARK  205  A    between atoms: _502  and  _503
REMARK  206  A    between atoms: _502  and  _505
REMARK  207  A    between atoms: _505  and  _506
REMARK  208  A    between atoms: _511  and  _513
REMARK  209  A    between atoms: _513  and  _514
REMARK  210  A    between atoms: _513  and  _516
REMARK  211  A    between atoms: _516  and  _517
REMARK  212  A    between atoms: _520  and  _522
REMARK  213  A    between atoms: _522  and  _523
REMARK  214  A    between atoms: _522  and  _525
REMARK  215  A    between atoms: _525  and  _526
REMARK  216  A    between atoms: _529  and  _531
REMARK  217  A    between atoms: _531  and  _532
REMARK  218  A    between atoms: _534  and  _536
REMARK  219  A    between atoms: _536  and  _537
REMARK  220  A    between atoms: _536  and  _539
REMARK  221  A    between atoms: _539  and  _540
REMARK  222  A    between atoms: _540  and  _541
REMARK  223  A    between atoms: _541  and  _542
REMARK  224  A    between atoms: _551  and  _553
REMARK  225  A    between atoms: _553  and  _554
REMARK  226  A    between atoms: _553  and  _556
REMARK  227  A    between atoms: _556  and  _557
REMARK                            x       y       z     vdW  Elec       q    Type
REMARK                         _______ _______ _______ _____ _____    ______ ____
ROOT
ATOM      1  O   HOH     1       5.438  15.539  21.771  0.00  0.00    +0.000 OA
ENDROOT
TORSDOF 0
REMARK  Name = ../refined-set-2016/3a2o/3a2o_pocket.pdb
REMARK  227 active torsions:
REMARK  status: ('A' for Active; 'I' for Inactive)
REMARK    1  A    between atoms: _1  and  _3
REMARK    2  A    between atoms: _3  and  _4
REMARK    3  A    between atoms: _3  and  _6
REMARK    4  A    between atoms: _6  and  _7
REMARK    5  A    between atoms: _7  and  _8
REMARK    6  A    between atoms: _8  and  _9
REMARK    7  A    between atoms: _18  and  _20
REMARK    8  A    between atoms: _20  and  _21
REMARK    9  A    between atoms: _20  and  _23
REMARK   10  A    between atoms: _23  and  _24
REMARK   11  A    between atoms: _27  and  _29
REMARK   12  A    between atoms: _29  and  _30
REMARK   13  A    between atoms: _29  and  _32
REMARK   14  A    between atoms: _32  and  _33
REMARK   15  A    between atoms: _36  and  _38
REMARK   16  A    between atoms: _38  and  _39
REMARK   17  A    between atoms: _38  and  _41
REMARK   18  A    between atoms: _41  and  _42
REMARK   19  A    between atoms: _45  and  _47
REMARK   20  A    between atoms: _47  and  _48
REMARK   21  A    between atoms: _47  and  _50
REMARK   22  A    between atoms: _50  and  _51
REMARK   23  A    between atoms: _54  and  _56
REMARK   24  A    between atoms: _56  and  _57
REMARK   25  A    between atoms: _59  and  _61
REMARK   26  A    between atoms: _61  and  _62
REMARK   27  A    between atoms: _65  and  _67
REMARK   28  A    between atoms: _67  and  _68
REMARK   29  A    between atoms: _67  and  _70
REMARK   30  A    between atoms: _70  and  _71
REMARK   31  A    between atoms: _74  and  _76
REMARK   32  A    between atoms: _76  and  _77
REMARK   33  A    between atoms: _76  and  _79
REMARK   34  A    between atoms: _79  and  _80
REMARK   35  A    between atoms: _83  and  _85
REMARK   36  A    between atoms: _85  and  _86
REMARK   37  A    between atoms: _85  and  _88
REMARK   38  A    between atoms: _88  and  _89
REMARK   39  A    between atoms: _92  and  _94
REMARK   40  A    between atoms: _94  and  _95
REMARK   41  A    between atoms: _94  and  _97
REMARK   42  A    between atoms: _100  and  _102
REMARK   43  A    between atoms: _102  and  _103
REMARK   44  A    between atoms: _102  and  _105
REMARK   45  A    between atoms: _106  and  _107
REMARK   46  A    between atoms: _107  and  _108
REMARK   47  A    between atoms: _108  and  _109
REMARK   48  A    between atoms: _113  and  _115
REMARK   49  A    between atoms: _115  and  _116
REMARK   50  A    between atoms: _115  and  _118
REMARK   51  A    between atoms: _118  and  _119
REMARK   52  A    between atoms: _119  and  _120
REMARK   53  A    between atoms: _122  and  _124
REMARK   54  A    between atoms: _124  and  _125
REMARK   55  A    between atoms: _124  and  _127
REMARK   56  A    between atoms: _127  and  _128
REMARK   57  A    between atoms: _131  and  _133
REMARK   58  A    between atoms: _133  and  _134
REMARK   59  A    between atoms: _136  and  _138
REMARK   60  A    between atoms: _138  and  _139
REMARK   61  A    between atoms: _141  and  _143
REMARK   62  A    between atoms: _143  and  _144
REMARK   63  A    between atoms: _143  and  _146
REMARK   64  A    between atoms: _146  and  _147
REMARK   65  A    between atoms: _150  and  _152
REMARK   66  A    between atoms: _152  and  _153
REMARK   67  A    between atoms: _155  and  _157
REMARK   68  A    between atoms: _157  and  _158
REMARK   69  A    between atoms: _160  and  _162
REMARK   70  A    between atoms: _162  and  _163
REMARK   71  A    between atoms: _162  and  _165
REMARK   72  A    between atoms: _165  and  _166
REMARK   73  A    between atoms: _169  and  _171
REMARK   74  A    between atoms: _171  and  _172
REMARK   75  A    between atoms: _171  and  _174
REMARK   76  A    between atoms: _177  and  _179
REMARK   77  A    between atoms: _179  and  _180
REMARK   78  A    between atoms: _179  and  _182
REMARK   79  A    between atoms: _182  and  _183
REMARK   80  A    between atoms: _187  and  _188
REMARK   81  A    between atoms: _193  and  _195
REMARK   82  A    between atoms: _195  and  _196
REMARK   83  A    between atoms: _195  and  _198
REMARK   84  A    between atoms: _198  and  _199
REMARK   85  A    between atoms: _203  and  _204
REMARK   86  A    between atoms: _209  and  _211
REMARK   87  A    between atoms: _211  and  _212
REMARK   88  A    between atoms: _211  and  _214
REMARK   89  A    between atoms: _217  and  _219
REMARK   90  A    between atoms: _219  and  _220
REMARK   91  A    between atoms: _219  and  _222
REMARK   92  A    between atoms: _222  and  _223
REMARK   93  A    between atoms: _228  and  _230
REMARK   94  A    between atoms: _230  and  _231
REMARK   95  A    between atoms: _230  and  _233
REMARK   96  A    between atoms: _233  and  _234
REMARK   97  A    between atoms: _237  and  _239
REMARK   98  A    between atoms: _239  and  _240
REMARK   99  A    between atoms: _239  and  _242
REMARK  100  A    between atoms: _242  and  _243
REMARK  101  A    between atoms: _246  and  _248
REMARK  102  A    between atoms: _248  and  _249
REMARK  103  A    between atoms: _251  and  _253
REMARK  104  A    between atoms: _253  and  _254
REMARK  105  A    between atoms: _253  and  _256
REMARK  106  A    between atoms: _256  and  _257
REMARK  107  A    between atoms: _257  and  _258
REMARK  108  A    between atoms: _258  and  _259
REMARK  109  A    between atoms: _268  and  _270
REMARK  110  A    between atoms: _270  and  _271
REMARK  111  A    between atoms: _270  and  _273
REMARK  112  A    between atoms: _273  and  _274
REMARK  113  A    between atoms: _279  and  _281
REMARK  114  A    between atoms: _281  and  _282
REMARK  115  A    between atoms: _281  and  _284
REMARK  116  A    between atoms: _284  and  _285
REMARK  117  A    between atoms: _285  and  _286
REMARK  118  A    between atoms: _286  and  _287
REMARK  119  A    between atoms: _296  and  _298
REMARK  120  A    between atoms: _298  and  _299
REMARK  121  A    between atoms: _298  and  _301
REMARK  122  A    between atoms: _301  and  _302
REMARK  123  A    between atoms: _305  and  _307
REMARK  124  A    between atoms: _307  and  _308
REMARK  125  A    between atoms: _307  and  _310
REMARK  126  A    between atoms: _310  and  _311
REMARK  127  A    between atoms: _314  and  _316
REMARK  128  A    between atoms: _316  and  _317
REMARK  129  A    between atoms: _316  and  _319
REMARK  130  A    between atoms: _319  and  _320
REMARK  131  A    between atoms: _323  and  _325
REMARK  132  A    between atoms: _325  and  _326
REMARK  133  A    between atoms: _325  and  _328
REMARK  134  A    between atoms: _328  and  _329
REMARK  135  A    between atoms: _332  and  _334
REMARK  136  A    between atoms: _334  and  _335
REMARK  137  A    between atoms: _337  and  _339
REMARK  138  A    between atoms: _339  and  _340
REMARK  139  A    between atoms: _343  and  _345
REMARK  140  A    between atoms: _345  and  _346
REMARK  141  A    between atoms: _345  and  _348
REMARK  142  A    between atoms: _348  and  _349
REMARK  143  A    between atoms: _352  and  _354
REMARK  144  A    between atoms: _354  and  _355
REMARK  145  A    between atoms: _354  and  _357
REMARK  146  A    between atoms: _357  and  _358
REMARK  147  A    between atoms: _361  and  _363
REMARK  148  A    between atoms: _363  and  _364
REMARK  149  A    between atoms: _363  and  _366
REMARK  150  A    between atoms: _366  and  _367
REMARK  151  A    between atoms: _370  and  _372
REMARK  152  A    between atoms: _372  and  _373
REMARK  153  A    between atoms: _372  and  _375
REMARK  154  A    between atoms: _378  and  _380
REMARK  155  A    between atoms: _380  and  _381
REMARK  156  A    between atoms: _380  and  _383
REMARK  157  A    between atoms: _384  and  _385
REMARK  158  A    between atoms: _385  and  _386
REMARK  159  A    between atoms: _386  and  _387
REMARK  160  A    between atoms: _391  and  _393
REMARK  161  A    between atoms: _393  and  _394
REMARK  162  A    between atoms: _393  and  _396
REMARK  163  A    between atoms: _396  and  _397
REMARK  164  A    between atoms: _397  and  _398
REMARK  165  A    between atoms: _400  and  _402
REMARK  166  A    between atoms: _402  and  _403
REMARK  167  A    between atoms: _402  and  _405
REMARK  168  A    between atoms: _405  and  _406
REMARK  169  A    between atoms: _409  and  _411
REMARK  170  A    between atoms: _411  and  _412
REMARK  171  A    between atoms: _414  and  _416
REMARK  172  A    between atoms: _416  and  _417
REMARK  173  A    between atoms: _419  and  _421
REMARK  174  A    between atoms: _421  and  _422
REMARK  175  A    between atoms: _421  and  _424
REMARK  176  A    between atoms: _424  and  _425
REMARK  177  A    between atoms: _428  and  _430
REMARK  178  A    between atoms: _430  and  _431
REMARK  179  A    between atoms: _433  and  _435
REMARK  180  A    between atoms: _435  and  _436
REMARK  181  A    between atoms: _438  and  _440
REMARK  182  A    between atoms: _440  and  _441
REMARK  183  A    between atoms: _440  and  _443
REMARK  184  A    between atoms: _443  and  _444
REMARK  185  A    between atoms: _450  and  _452
REMARK  186  A    between atoms: _452  and  _453
REMARK  187  A    between atoms: _452  and  _455
REMARK  188  A    between atoms: _455  and  _456
REMARK  189  A    between atoms: _459  and  _461
REMARK  190  A    between atoms: _461  and  _462
REMARK  191  A    between atoms: _461  and  _464
REMARK  192  A    between atoms: _467  and  _469
REMARK  193  A    between atoms: _469  and  _470
REMARK  194  A    between atoms: _469  and  _472
REMARK  195  A    between atoms: _472  and  _473
REMARK  196  A    between atoms: _476  and  _478
REMARK  197  A    between atoms: _478  and  _479
REMARK  198  A    between atoms: _478  and  _481
REMARK  199  A    between atoms: _481  and  _482
REMARK  200  A    between atoms: _486  and  _487
REMARK  201  A    between atoms: _492  and  _494
REMARK  202  A    between atoms: _494  and  _495
REMARK  203  A    between atoms: _494  and  _497
REMARK  204  A    between atoms: _500  and  _502
REMARK  205  A    between atoms: _502  and  _503
REMARK  206  A    between atoms: _502  and  _505
REMARK  207  A    between atoms: _505  and  _506
REMARK  208  A    between atoms: _511  and  _513
REMARK  209  A    between atoms: _513  and  _514
REMARK  210  A    between atoms: _513  and  _516
REMARK  211  A    between atoms: _516  and  _517
REMARK  212  A    between atoms: _520  and  _522
REMARK  213  A    between atoms: _522  and  _523
REMARK  214  A    between atoms: _522  and  _525
REMARK  215  A    between atoms: _525  and  _526
REMARK  216  A    between atoms: _529  and  _531
REMARK  217  A    between atoms: _531  and  _532
REMARK  218  A    between atoms: _534  and  _536
REMARK  219  A    between atoms: _536  and  _537
REMARK  220  A    between atoms: _536  and  _539
REMARK  221  A    between atoms: _539  and  _540
REMARK  222  A    between atoms: _540  and  _541
REMARK  223  A    between atoms: _541  and  _542
REMARK  224  A    between atoms: _551  and  _553
REMARK  225  A    between atoms: _553  and  _554
REMARK  226  A    between atoms: _553  and  _556
REMARK  227  A    between atoms: _556  and  _557
REMARK                            x       y       z     vdW  Elec       q    Type
REMARK                         _______ _______ _______ _____ _____    ______ ____
ROOT
ATOM      1  O   HOH     1      26.291  22.569  23.522  0.00  0.00    +0.000 OA
ENDROOT
TORSDOF 0
REMARK  Name = ../refined-set-2016/3a2o/3a2o_pocket.pdb
REMARK  227 active torsions:
REMARK  status: ('A' for Active; 'I' for Inactive)
REMARK    1  A    between atoms: _1  and  _3
REMARK    2  A    between atoms: _3  and  _4
REMARK    3  A    between atoms: _3  and  _6
REMARK    4  A    between atoms: _6  and  _7
REMARK    5  A    between atoms: _7  and  _8
REMARK    6  A    between atoms: _8  and  _9
REMARK    7  A    between atoms: _18  and  _20
REMARK    8  A    between atoms: _20  and  _21
REMARK    9  A    between atoms: _20  and  _23
REMARK   10  A    between atoms: _23  and  _24
REMARK   11  A    between atoms: _27  and  _29
REMARK   12  A    between atoms: _29  and  _30
REMARK   13  A    between atoms: _29  and  _32
REMARK   14  A    between atoms: _32  and  _33
REMARK   15  A    between atoms: _36  and  _38
REMARK   16  A    between atoms: _38  and  _39
REMARK   17  A    between atoms: _38  and  _41
REMARK   18  A    between atoms: _41  and  _42
REMARK   19  A    between atoms: _45  and  _47
REMARK   20  A    between atoms: _47  and  _48
REMARK   21  A    between atoms: _47  and  _50
REMARK   22  A    between atoms: _50  and  _51
REMARK   23  A    between atoms: _54  and  _56
REMARK   24  A    between atoms: _56  and  _57
REMARK   25  A    between atoms: _59  and  _61
REMARK   26  A    between atoms: _61  and  _62
REMARK   27  A    between atoms: _65  and  _67
REMARK   28  A    between atoms: _67  and  _68
REMARK   29  A    between atoms: _67  and  _70
REMARK   30  A    between atoms: _70  and  _71
REMARK   31  A    between atoms: _74  and  _76
REMARK   32  A    between atoms: _76  and  _77
REMARK   33  A    between atoms: _76  and  _79
REMARK   34  A    between atoms: _79  and  _80
REMARK   35  A    between atoms: _83  and  _85
REMARK   36  A    between atoms: _85  and  _86
REMARK   37  A    between atoms: _85  and  _88
REMARK   38  A    between atoms: _88  and  _89
REMARK   39  A    between atoms: _92  and  _94
REMARK   40  A    between atoms: _94  and  _95
REMARK   41  A    between atoms: _94  and  _97
REMARK   42  A    between atoms: _100  and  _102
REMARK   43  A    between atoms: _102  and  _103
REMARK   44  A    between atoms: _102  and  _105
REMARK   45  A    between atoms: _106  and  _107
REMARK   46  A    between atoms: _107  and  _108
REMARK   47  A    between atoms: _108  and  _109
REMARK   48  A    between atoms: _113  and  _115
REMARK   49  A    between atoms: _115  and  _116
REMARK   50  A    between atoms: _115  and  _118
REMARK   51  A    between atoms: _118  and  _119
REMARK   52  A    between atoms: _119  and  _120
REMARK   53  A    between atoms: _122  and  _124
REMARK   54  A    between atoms: _124  and  _125
REMARK   55  A    between atoms: _124  and  _127
REMARK   56  A    between atoms: _127  and  _128
REMARK   57  A    between atoms: _131  and  _133
REMARK   58  A    between atoms: _133  and  _134
REMARK   59  A    between atoms: _136  and  _138
REMARK   60  A    between atoms: _138  and  _139
REMARK   61  A    between atoms: _141  and  _143
REMARK   62  A    between atoms: _143  and  _144
REMARK   63  A    between atoms: _143  and  _146
REMARK   64  A    between atoms: _146  and  _147
REMARK   65  A    between atoms: _150  and  _152
REMARK   66  A    between atoms: _152  and  _153
REMARK   67  A    between atoms: _155  and  _157
REMARK   68  A    between atoms: _157  and  _158
REMARK   69  A    between atoms: _160  and  _162
REMARK   70  A    between atoms: _162  and  _163
REMARK   71  A    between atoms: _162  and  _165
REMARK   72  A    between atoms: _165  and  _166
REMARK   73  A    between atoms: _169  and  _171
REMARK   74  A    between atoms: _171  and  _172
REMARK   75  A    between atoms: _171  and  _174
REMARK   76  A    between atoms: _177  and  _179
REMARK   77  A    between atoms: _179  and  _180
REMARK   78  A    between atoms: _179  and  _182
REMARK   79  A    between atoms: _182  and  _183
REMARK   80  A    between atoms: _187  and  _188
REMARK   81  A    between atoms: _193  and  _195
REMARK   82  A    between atoms: _195  and  _196
REMARK   83  A    between atoms: _195  and  _198
REMARK   84  A    between atoms: _198  and  _199
REMARK   85  A    between atoms: _203  and  _204
REMARK   86  A    between atoms: _209  and  _211
REMARK   87  A    between atoms: _211  and  _212
REMARK   88  A    between atoms: _211  and  _214
REMARK   89  A    between atoms: _217  and  _219
REMARK   90  A    between atoms: _219  and  _220
REMARK   91  A    between atoms: _219  and  _222
REMARK   92  A    between atoms: _222  and  _223
REMARK   93  A    between atoms: _228  and  _230
REMARK   94  A    between atoms: _230  and  _231
REMARK   95  A    between atoms: _230  and  _233
REMARK   96  A    between atoms: _233  and  _234
REMARK   97  A    between atoms: _237  and  _239
REMARK   98  A    between atoms: _239  and  _240
REMARK   99  A    between atoms: _239  and  _242
REMARK  100  A    between atoms: _242  and  _243
REMARK  101  A    between atoms: _246  and  _248
REMARK  102  A    between atoms: _248  and  _249
REMARK  103  A    between atoms: _251  and  _253
REMARK  104  A    between atoms: _253  and  _254
REMARK  105  A    between atoms: _253  and  _256
REMARK  106  A    between atoms: _256  and  _257
REMARK  107  A    between atoms: _257  and  _258
REMARK  108  A    between atoms: _258  and  _259
REMARK  109  A    between atoms: _268  and  _270
REMARK  110  A    between atoms: _270  and  _271
REMARK  111  A    between atoms: _270  and  _273
REMARK  112  A    between atoms: _273  and  _274
REMARK  113  A    between atoms: _279  and  _281
REMARK  114  A    between atoms: _281  and  _282
REMARK  115  A    between atoms: _281  and  _284
REMARK  116  A    between atoms: _284  and  _285
REMARK  117  A    between atoms: _285  and  _286
REMARK  118  A    between atoms: _286  and  _287
REMARK  119  A    between atoms: _296  and  _298
REMARK  120  A    between atoms: _298  and  _299
REMARK  121  A    between atoms: _298  and  _301
REMARK  122  A    between atoms: _301  and  _302
REMARK  123  A    between atoms: _305  and  _307
REMARK  124  A    between atoms: _307  and  _308
REMARK  125  A    between atoms: _307  and  _310
REMARK  126  A    between atoms: _310  and  _311
REMARK  127  A    between atoms: _314  and  _316
REMARK  128  A    between atoms: _316  and  _317
REMARK  129  A    between atoms: _316  and  _319
REMARK  130  A    between atoms: _319  and  _320
REMARK  131  A    between atoms: _323  and  _325
REMARK  132  A    between atoms: _325  and  _326
REMARK  133  A    between atoms: _325  and  _328
REMARK  134  A    between atoms: _328  and  _329
REMARK  135  A    between atoms: _332  and  _334
REMARK  136  A    between atoms: _334  and  _335
REMARK  137  A    between atoms: _337  and  _339
REMARK  138  A    between atoms: _339  and  _340
REMARK  139  A    between atoms: _343  and  _345
REMARK  140  A    between atoms: _345  and  _346
REMARK  141  A    between atoms: _345  and  _348
REMARK  142  A    between atoms: _348  and  _349
REMARK  143  A    between atoms: _352  and  _354
REMARK  144  A    between atoms: _354  and  _355
REMARK  145  A    between atoms: _354  and  _357
REMARK  146  A    between atoms: _357  and  _358
REMARK  147  A    between atoms: _361  and  _363
REMARK  148  A    between atoms: _363  and  _364
REMARK  149  A    between atoms: _363  and  _366
REMARK  150  A    between atoms: _366  and  _367
REMARK  151  A    between atoms: _370  and  _372
REMARK  152  A    between atoms: _372  and  _373
REMARK  153  A    between atoms: _372  and  _375
REMARK  154  A    between atoms: _378  and  _380
REMARK  155  A    between atoms: _380  and  _381
REMARK  156  A    between atoms: _380  and  _383
REMARK  157  A    between atoms: _384  and  _385
REMARK  158  A    between atoms: _385  and  _386
REMARK  159  A    between atoms: _386  and  _387
REMARK  160  A    between atoms: _391  and  _393
REMARK  161  A    between atoms: _393  and  _394
REMARK  162  A    between atoms: _393  and  _396
REMARK  163  A    between atoms: _396  and  _397
REMARK  164  A    between atoms: _397  and  _398
REMARK  165  A    between atoms: _400  and  _402
REMARK  166  A    between atoms: _402  and  _403
REMARK  167  A    between atoms: _402  and  _405
REMARK  168  A    between atoms: _405  and  _406
REMARK  169  A    between atoms: _409  and  _411
REMARK  170  A    between atoms: _411  and  _412
REMARK  171  A    between atoms: _414  and  _416
REMARK  172  A    between atoms: _416  and  _417
REMARK  173  A    between atoms: _419  and  _421
REMARK  174  A    between atoms: _421  and  _422
REMARK  175  A    between atoms: _421  and  _424
REMARK  176  A    between atoms: _424  and  _425
REMARK  177  A    between atoms: _428  and  _430
REMARK  178  A    between atoms: _430  and  _431
REMARK  179  A    between atoms: _433  and  _435
REMARK  180  A    between atoms: _435  and  _436
REMARK  181  A    between atoms: _438  and  _440
REMARK  182  A    between atoms: _440  and  _441
REMARK  183  A    between atoms: _440  and  _443
REMARK  184  A    between atoms: _443  and  _444
REMARK  185  A    between atoms: _450  and  _452
REMARK  186  A    between atoms: _452  and  _453
REMARK  187  A    between atoms: _452  and  _455
REMARK  188  A    between atoms: _455  and  _456
REMARK  189  A    between atoms: _459  and  _461
REMARK  190  A    between atoms: _461  and  _462
REMARK  191  A    between atoms: _461  and  _464
REMARK  192  A    between atoms: _467  and  _469
REMARK  193  A    between atoms: _469  and  _470
REMARK  194  A    between atoms: _469  and  _472
REMARK  195  A    between atoms: _472  and  _473
REMARK  196  A    between atoms: _476  and  _478
REMARK  197  A    between atoms: _478  and  _479
REMARK  198  A    between atoms: _478  and  _481
REMARK  199  A    between atoms: _481  and  _482
REMARK  200  A    between atoms: _486  and  _487
REMARK  201  A    between atoms: _492  and  _494
REMARK  202  A    between atoms: _494  and  _495
REMARK  203  A    between atoms: _494  and  _497
REMARK  204  A    between atoms: _500  and  _502
REMARK  205  A    between atoms: _502  and  _503
REMARK  206  A    between atoms: _502  and  _505
REMARK  207  A    between atoms: _505  and  _506
REMARK  208  A    between atoms: _511  and  _513
REMARK  209  A    between atoms: _513  and  _514
REMARK  210  A    between atoms: _513  and  _516
REMARK  211  A    between atoms: _516  and  _517
REMARK  212  A    between atoms: _520  and  _522
REMARK  213  A    between atoms: _522  and  _523
REMARK  214  A    between atoms: _522  and  _525
REMARK  215  A    between atoms: _525  and  _526
REMARK  216  A    between atoms: _529  and  _531
REMARK  217  A    between atoms: _531  and  _532
REMARK  218  A    between atoms: _534  and  _536
REMARK  219  A    between atoms: _536  and  _537
REMARK  220  A    between atoms: _536  and  _539
REMARK  221  A    between atoms: _539  and  _540
REMARK  222  A    between atoms: _540  and  _541
REMARK  223  A    between atoms: _541  and  _542
REMARK  224  A    between atoms: _551  and  _553
REMARK  225  A    between atoms: _553  and  _554
REMARK  226  A    between atoms: _553  and  _556
REMARK  227  A    between atoms: _556  and  _557
REMARK                            x       y       z     vdW  Elec       q    Type
REMARK                         _______ _______ _______ _____ _____    ______ ____
ROOT
ATOM      1  O   HOH     1      17.519  15.149   9.793  0.00  0.00    +0.000 OA
ENDROOT
TORSDOF 0
REMARK  Name = ../refined-set-2016/3a2o/3a2o_pocket.pdb
REMARK  227 active torsions:
REMARK  status: ('A' for Active; 'I' for Inactive)
REMARK    1  A    between atoms: _1  and  _3
REMARK    2  A    between atoms: _3  and  _4
REMARK    3  A    between atoms: _3  and  _6
REMARK    4  A    between atoms: _6  and  _7
REMARK    5  A    between atoms: _7  and  _8
REMARK    6  A    between atoms: _8  and  _9
REMARK    7  A    between atoms: _18  and  _20
REMARK    8  A    between atoms: _20  and  _21
REMARK    9  A    between atoms: _20  and  _23
REMARK   10  A    between atoms: _23  and  _24
REMARK   11  A    between atoms: _27  and  _29
REMARK   12  A    between atoms: _29  and  _30
REMARK   13  A    between atoms: _29  and  _32
REMARK   14  A    between atoms: _32  and  _33
REMARK   15  A    between atoms: _36  and  _38
REMARK   16  A    between atoms: _38  and  _39
REMARK   17  A    between atoms: _38  and  _41
REMARK   18  A    between atoms: _41  and  _42
REMARK   19  A    between atoms: _45  and  _47
REMARK   20  A    between atoms: _47  and  _48
REMARK   21  A    between atoms: _47  and  _50
REMARK   22  A    between atoms: _50  and  _51
REMARK   23  A    between atoms: _54  and  _56
REMARK   24  A    between atoms: _56  and  _57
REMARK   25  A    between atoms: _59  and  _61
REMARK   26  A    between atoms: _61  and  _62
REMARK   27  A    between atoms: _65  and  _67
REMARK   28  A    between atoms: _67  and  _68
REMARK   29  A    between atoms: _67  and  _70
REMARK   30  A    between atoms: _70  and  _71
REMARK   31  A    between atoms: _74  and  _76
REMARK   32  A    between atoms: _76  and  _77
REMARK   33  A    between atoms: _76  and  _79
REMARK   34  A    between atoms: _79  and  _80
REMARK   35  A    between atoms: _83  and  _85
REMARK   36  A    between atoms: _85  and  _86
REMARK   37  A    between atoms: _85  and  _88
REMARK   38  A    between atoms: _88  and  _89
REMARK   39  A    between atoms: _92  and  _94
REMARK   40  A    between atoms: _94  and  _95
REMARK   41  A    between atoms: _94  and  _97
REMARK   42  A    between atoms: _100  and  _102
REMARK   43  A    between atoms: _102  and  _103
REMARK   44  A    between atoms: _102  and  _105
REMARK   45  A    between atoms: _106  and  _107
REMARK   46  A    between atoms: _107  and  _108
REMARK   47  A    between atoms: _108  and  _109
REMARK   48  A    between atoms: _113  and  _115
REMARK   49  A    between atoms: _115  and  _116
REMARK   50  A    between atoms: _115  and  _118
REMARK   51  A    between atoms: _118  and  _119
REMARK   52  A    between atoms: _119  and  _120
REMARK   53  A    between atoms: _122  and  _124
REMARK   54  A    between atoms: _124  and  _125
REMARK   55  A    between atoms: _124  and  _127
REMARK   56  A    between atoms: _127  and  _128
REMARK   57  A    between atoms: _131  and  _133
REMARK   58  A    between atoms: _133  and  _134
REMARK   59  A    between atoms: _136  and  _138
REMARK   60  A    between atoms: _138  and  _139
REMARK   61  A    between atoms: _141  and  _143
REMARK   62  A    between atoms: _143  and  _144
REMARK   63  A    between atoms: _143  and  _146
REMARK   64  A    between atoms: _146  and  _147
REMARK   65  A    between atoms: _150  and  _152
REMARK   66  A    between atoms: _152  and  _153
REMARK   67  A    between atoms: _155  and  _157
REMARK   68  A    between atoms: _157  and  _158
REMARK   69  A    between atoms: _160  and  _162
REMARK   70  A    between atoms: _162  and  _163
REMARK   71  A    between atoms: _162  and  _165
REMARK   72  A    between atoms: _165  and  _166
REMARK   73  A    between atoms: _169  and  _171
REMARK   74  A    between atoms: _171  and  _172
REMARK   75  A    between atoms: _171  and  _174
REMARK   76  A    between atoms: _177  and  _179
REMARK   77  A    between atoms: _179  and  _180
REMARK   78  A    between atoms: _179  and  _182
REMARK   79  A    between atoms: _182  and  _183
REMARK   80  A    between atoms: _187  and  _188
REMARK   81  A    between atoms: _193  and  _195
REMARK   82  A    between atoms: _195  and  _196
REMARK   83  A    between atoms: _195  and  _198
REMARK   84  A    between atoms: _198  and  _199
REMARK   85  A    between atoms: _203  and  _204
REMARK   86  A    between atoms: _209  and  _211
REMARK   87  A    between atoms: _211  and  _212
REMARK   88  A    between atoms: _211  and  _214
REMARK   89  A    between atoms: _217  and  _219
REMARK   90  A    between atoms: _219  and  _220
REMARK   91  A    between atoms: _219  and  _222
REMARK   92  A    between atoms: _222  and  _223
REMARK   93  A    between atoms: _228  and  _230
REMARK   94  A    between atoms: _230  and  _231
REMARK   95  A    between atoms: _230  and  _233
REMARK   96  A    between atoms: _233  and  _234
REMARK   97  A    between atoms: _237  and  _239
REMARK   98  A    between atoms: _239  and  _240
REMARK   99  A    between atoms: _239  and  _242
REMARK  100  A    between atoms: _242  and  _243
REMARK  101  A    between atoms: _246  and  _248
REMARK  102  A    between atoms: _248  and  _249
REMARK  103  A    between atoms: _251  and  _253
REMARK  104  A    between atoms: _253  and  _254
REMARK  105  A    between atoms: _253  and  _256
REMARK  106  A    between atoms: _256  and  _257
REMARK  107  A    between atoms: _257  and  _258
REMARK  108  A    between atoms: _258  and  _259
REMARK  109  A    between atoms: _268  and  _270
REMARK  110  A    between atoms: _270  and  _271
REMARK  111  A    between atoms: _270  and  _273
REMARK  112  A    between atoms: _273  and  _274
REMARK  113  A    between atoms: _279  and  _281
REMARK  114  A    between atoms: _281  and  _282
REMARK  115  A    between atoms: _281  and  _284
REMARK  116  A    between atoms: _284  and  _285
REMARK  117  A    between atoms: _285  and  _286
REMARK  118  A    between atoms: _286  and  _287
REMARK  119  A    between atoms: _296  and  _298
REMARK  120  A    between atoms: _298  and  _299
REMARK  121  A    between atoms: _298  and  _301
REMARK  122  A    between atoms: _301  and  _302
REMARK  123  A    between atoms: _305  and  _307
REMARK  124  A    between atoms: _307  and  _308
REMARK  125  A    between atoms: _307  and  _310
REMARK  126  A    between atoms: _310  and  _311
REMARK  127  A    between atoms: _314  and  _316
REMARK  128  A    between atoms: _316  and  _317
REMARK  129  A    between atoms: _316  and  _319
REMARK  130  A    between atoms: _319  and  _320
REMARK  131  A    between atoms: _323  and  _325
REMARK  132  A    between atoms: _325  and  _326
REMARK  133  A    between atoms: _325  and  _328
REMARK  134  A    between atoms: _328  and  _329
REMARK  135  A    between atoms: _332  and  _334
REMARK  136  A    between atoms: _334  and  _335
REMARK  137  A    between atoms: _337  and  _339
REMARK  138  A    between atoms: _339  and  _340
REMARK  139  A    between atoms: _343  and  _345
REMARK  140  A    between atoms: _345  and  _346
REMARK  141  A    between atoms: _345  and  _348
REMARK  142  A    between atoms: _348  and  _349
REMARK  143  A    between atoms: _352  and  _354
REMARK  144  A    between atoms: _354  and  _355
REMARK  145  A    between atoms: _354  and  _357
REMARK  146  A    between atoms: _357  and  _358
REMARK  147  A    between atoms: _361  and  _363
REMARK  148  A    between atoms: _363  and  _364
REMARK  149  A    between atoms: _363  and  _366
REMARK  150  A    between atoms: _366  and  _367
REMARK  151  A    between atoms: _370  and  _372
REMARK  152  A    between atoms: _372  and  _373
REMARK  153  A    between atoms: _372  and  _375
REMARK  154  A    between atoms: _378  and  _380
REMARK  155  A    between atoms: _380  and  _381
REMARK  156  A    between atoms: _380  and  _383
REMARK  157  A    between atoms: _384  and  _385
REMARK  158  A    between atoms: _385  and  _386
REMARK  159  A    between atoms: _386  and  _387
REMARK  160  A    between atoms: _391  and  _393
REMARK  161  A    between atoms: _393  and  _394
REMARK  162  A    between atoms: _393  and  _396
REMARK  163  A    between atoms: _396  and  _397
REMARK  164  A    between atoms: _397  and  _398
REMARK  165  A    between atoms: _400  and  _402
REMARK  166  A    between atoms: _402  and  _403
REMARK  167  A    between atoms: _402  and  _405
REMARK  168  A    between atoms: _405  and  _406
REMARK  169  A    between atoms: _409  and  _411
REMARK  170  A    between atoms: _411  and  _412
REMARK  171  A    between atoms: _414  and  _416
REMARK  172  A    between atoms: _416  and  _417
REMARK  173  A    between atoms: _419  and  _421
REMARK  174  A    between atoms: _421  and  _422
REMARK  175  A    between atoms: _421  and  _424
REMARK  176  A    between atoms: _424  and  _425
REMARK  177  A    between atoms: _428  and  _430
REMARK  178  A    between atoms: _430  and  _431
REMARK  179  A    between atoms: _433  and  _435
REMARK  180  A    between atoms: _435  and  _436
REMARK  181  A    between atoms: _438  and  _440
REMARK  182  A    between atoms: _440  and  _441
REMARK  183  A    between atoms: _440  and  _443
REMARK  184  A    between atoms: _443  and  _444
REMARK  185  A    between atoms: _450  and  _452
REMARK  186  A    between atoms: _452  and  _453
REMARK  187  A    between atoms: _452  and  _455
REMARK  188  A    between atoms: _455  and  _456
REMARK  189  A    between atoms: _459  and  _461
REMARK  190  A    between atoms: _461  and  _462
REMARK  191  A    between atoms: _461  and  _464
REMARK  192  A    between atoms: _467  and  _469
REMARK  193  A    between atoms: _469  and  _470
REMARK  194  A    between atoms: _469  and  _472
REMARK  195  A    between atoms: _472  and  _473
REMARK  196  A    between atoms: _476  and  _478
REMARK  197  A    between atoms: _478  and  _479
REMARK  198  A    between atoms: _478  and  _481
REMARK  199  A    between atoms: _481  and  _482
REMARK  200  A    between atoms: _486  and  _487
REMARK  201  A    between atoms: _492  and  _494
REMARK  202  A    between atoms: _494  and  _495
REMARK  203  A    between atoms: _494  and  _497
REMARK  204  A    between atoms: _500  and  _502
REMARK  205  A    between atoms: _502  and  _503
REMARK  206  A    between atoms: _502  and  _505
REMARK  207  A    between atoms: _505  and  _506
REMARK  208  A    between atoms: _511  and  _513
REMARK  209  A    between atoms: _513  and  _514
REMARK  210  A    between atoms: _513  and  _516
REMARK  211  A    between atoms: _516  and  _517
REMARK  212  A    between atoms: _520  and  _522
REMARK  213  A    between atoms: _522  and  _523
REMARK  214  A    between atoms: _522  and  _525
REMARK  215  A    between atoms: _525  and  _526
REMARK  216  A    between atoms: _529  and  _531
REMARK  217  A    between atoms: _531  and  _532
REMARK  218  A    between atoms: _534  and  _536
REMARK  219  A    between atoms: _536  and  _537
REMARK  220  A    between atoms: _536  and  _539
REMARK  221  A    between atoms: _539  and  _540
REMARK  222  A    between atoms: _540  and  _541
REMARK  223  A    between atoms: _541  and  _542
REMARK  224  A    between atoms: _551  and  _553
REMARK  225  A    between atoms: _553  and  _554
REMARK  226  A    between atoms: _553  and  _556
REMARK  227  A    between atoms: _556  and  _557
REMARK                            x       y       z     vdW  Elec       q    Type
REMARK                         _______ _______ _______ _____ _____    ______ ____
ROOT
ATOM      1  O   HOH     1       9.225  10.798  17.886  0.00  0.00    +0.000 OA
ENDROOT
TORSDOF 0
REMARK  Name = ../refined-set-2016/3a2o/3a2o_pocket.pdb
REMARK  227 active torsions:
REMARK  status: ('A' for Active; 'I' for Inactive)
REMARK    1  A    between atoms: _1  and  _3
REMARK    2  A    between atoms: _3  and  _4
REMARK    3  A    between atoms: _3  and  _6
REMARK    4  A    between atoms: _6  and  _7
REMARK    5  A    between atoms: _7  and  _8
REMARK    6  A    between atoms: _8  and  _9
REMARK    7  A    between atoms: _18  and  _20
REMARK    8  A    between atoms: _20  and  _21
REMARK    9  A    between atoms: _20  and  _23
REMARK   10  A    between atoms: _23  and  _24
REMARK   11  A    between atoms: _27  and  _29
REMARK   12  A    between atoms: _29  and  _30
REMARK   13  A    between atoms: _29  and  _32
REMARK   14  A    between atoms: _32  and  _33
REMARK   15  A    between atoms: _36  and  _38
REMARK   16  A    between atoms: _38  and  _39
REMARK   17  A    between atoms: _38  and  _41
REMARK   18  A    between atoms: _41  and  _42
REMARK   19  A    between atoms: _45  and  _47
REMARK   20  A    between atoms: _47  and  _48
REMARK   21  A    between atoms: _47  and  _50
REMARK   22  A    between atoms: _50  and  _51
REMARK   23  A    between atoms: _54  and  _56
REMARK   24  A    between atoms: _56  and  _57
REMARK   25  A    between atoms: _59  and  _61
REMARK   26  A    between atoms: _61  and  _62
REMARK   27  A    between atoms: _65  and  _67
REMARK   28  A    between atoms: _67  and  _68
REMARK   29  A    between atoms: _67  and  _70
REMARK   30  A    between atoms: _70  and  _71
REMARK   31  A    between atoms: _74  and  _76
REMARK   32  A    between atoms: _76  and  _77
REMARK   33  A    between atoms: _76  and  _79
REMARK   34  A    between atoms: _79  and  _80
REMARK   35  A    between atoms: _83  and  _85
REMARK   36  A    between atoms: _85  and  _86
REMARK   37  A    between atoms: _85  and  _88
REMARK   38  A    between atoms: _88  and  _89
REMARK   39  A    between atoms: _92  and  _94
REMARK   40  A    between atoms: _94  and  _95
REMARK   41  A    between atoms: _94  and  _97
REMARK   42  A    between atoms: _100  and  _102
REMARK   43  A    between atoms: _102  and  _103
REMARK   44  A    between atoms: _102  and  _105
REMARK   45  A    between atoms: _106  and  _107
REMARK   46  A    between atoms: _107  and  _108
REMARK   47  A    between atoms: _108  and  _109
REMARK   48  A    between atoms: _113  and  _115
REMARK   49  A    between atoms: _115  and  _116
REMARK   50  A    between atoms: _115  and  _118
REMARK   51  A    between atoms: _118  and  _119
REMARK   52  A    between atoms: _119  and  _120
REMARK   53  A    between atoms: _122  and  _124
REMARK   54  A    between atoms: _124  and  _125
REMARK   55  A    between atoms: _124  and  _127
REMARK   56  A    between atoms: _127  and  _128
REMARK   57  A    between atoms: _131  and  _133
REMARK   58  A    between atoms: _133  and  _134
REMARK   59  A    between atoms: _136  and  _138
REMARK   60  A    between atoms: _138  and  _139
REMARK   61  A    between atoms: _141  and  _143
REMARK   62  A    between atoms: _143  and  _144
REMARK   63  A    between atoms: _143  and  _146
REMARK   64  A    between atoms: _146  and  _147
REMARK   65  A    between atoms: _150  and  _152
REMARK   66  A    between atoms: _152  and  _153
REMARK   67  A    between atoms: _155  and  _157
REMARK   68  A    between atoms: _157  and  _158
REMARK   69  A    between atoms: _160  and  _162
REMARK   70  A    between atoms: _162  and  _163
REMARK   71  A    between atoms: _162  and  _165
REMARK   72  A    between atoms: _165  and  _166
REMARK   73  A    between atoms: _169  and  _171
REMARK   74  A    between atoms: _171  and  _172
REMARK   75  A    between atoms: _171  and  _174
REMARK   76  A    between atoms: _177  and  _179
REMARK   77  A    between atoms: _179  and  _180
REMARK   78  A    between atoms: _179  and  _182
REMARK   79  A    between atoms: _182  and  _183
REMARK   80  A    between atoms: _187  and  _188
REMARK   81  A    between atoms: _193  and  _195
REMARK   82  A    between atoms: _195  and  _196
REMARK   83  A    between atoms: _195  and  _198
REMARK   84  A    between atoms: _198  and  _199
REMARK   85  A    between atoms: _203  and  _204
REMARK   86  A    between atoms: _209  and  _211
REMARK   87  A    between atoms: _211  and  _212
REMARK   88  A    between atoms: _211  and  _214
REMARK   89  A    between atoms: _217  and  _219
REMARK   90  A    between atoms: _219  and  _220
REMARK   91  A    between atoms: _219  and  _222
REMARK   92  A    between atoms: _222  and  _223
REMARK   93  A    between atoms: _228  and  _230
REMARK   94  A    between atoms: _230  and  _231
REMARK   95  A    between atoms: _230  and  _233
REMARK   96  A    between atoms: _233  and  _234
REMARK   97  A    between atoms: _237  and  _239
REMARK   98  A    between atoms: _239  and  _240
REMARK   99  A    between atoms: _239  and  _242
REMARK  100  A    between atoms: _242  and  _243
REMARK  101  A    between atoms: _246  and  _248
REMARK  102  A    between atoms: _248  and  _249
REMARK  103  A    between atoms: _251  and  _253
REMARK  104  A    between atoms: _253  and  _254
REMARK  105  A    between atoms: _253  and  _256
REMARK  106  A    between atoms: _256  and  _257
REMARK  107  A    between atoms: _257  and  _258
REMARK  108  A    between atoms: _258  and  _259
REMARK  109  A    between atoms: _268  and  _270
REMARK  110  A    between atoms: _270  and  _271
REMARK  111  A    between atoms: _270  and  _273
REMARK  112  A    between atoms: _273  and  _274
REMARK  113  A    between atoms: _279  and  _281
REMARK  114  A    between atoms: _281  and  _282
REMARK  115  A    between atoms: _281  and  _284
REMARK  116  A    between atoms: _284  and  _285
REMARK  117  A    between atoms: _285  and  _286
REMARK  118  A    between atoms: _286  and  _287
REMARK  119  A    between atoms: _296  and  _298
REMARK  120  A    between atoms: _298  and  _299
REMARK  121  A    between atoms: _298  and  _301
REMARK  122  A    between atoms: _301  and  _302
REMARK  123  A    between atoms: _305  and  _307
REMARK  124  A    between atoms: _307  and  _308
REMARK  125  A    between atoms: _307  and  _310
REMARK  126  A    between atoms: _310  and  _311
REMARK  127  A    between atoms: _314  and  _316
REMARK  128  A    between atoms: _316  and  _317
REMARK  129  A    between atoms: _316  and  _319
REMARK  130  A    between atoms: _319  and  _320
REMARK  131  A    between atoms: _323  and  _325
REMARK  132  A    between atoms: _325  and  _326
REMARK  133  A    between atoms: _325  and  _328
REMARK  134  A    between atoms: _328  and  _329
REMARK  135  A    between atoms: _332  and  _334
REMARK  136  A    between atoms: _334  and  _335
REMARK  137  A    between atoms: _337  and  _339
REMARK  138  A    between atoms: _339  and  _340
REMARK  139  A    between atoms: _343  and  _345
REMARK  140  A    between atoms: _345  and  _346
REMARK  141  A    between atoms: _345  and  _348
REMARK  142  A    between atoms: _348  and  _349
REMARK  143  A    between atoms: _352  and  _354
REMARK  144  A    between atoms: _354  and  _355
REMARK  145  A    between atoms: _354  and  _357
REMARK  146  A    between atoms: _357  and  _358
REMARK  147  A    between atoms: _361  and  _363
REMARK  148  A    between atoms: _363  and  _364
REMARK  149  A    between atoms: _363  and  _366
REMARK  150  A    between atoms: _366  and  _367
REMARK  151  A    between atoms: _370  and  _372
REMARK  152  A    between atoms: _372  and  _373
REMARK  153  A    between atoms: _372  and  _375
REMARK  154  A    between atoms: _378  and  _380
REMARK  155  A    between atoms: _380  and  _381
REMARK  156  A    between atoms: _380  and  _383
REMARK  157  A    between atoms: _384  and  _385
REMARK  158  A    between atoms: _385  and  _386
REMARK  159  A    between atoms: _386  and  _387
REMARK  160  A    between atoms: _391  and  _393
REMARK  161  A    between atoms: _393  and  _394
REMARK  162  A    between atoms: _393  and  _396
REMARK  163  A    between atoms: _396  and  _397
REMARK  164  A    between atoms: _397  and  _398
REMARK  165  A    between atoms: _400  and  _402
REMARK  166  A    between atoms: _402  and  _403
REMARK  167  A    between atoms: _402  and  _405
REMARK  168  A    between atoms: _405  and  _406
REMARK  169  A    between atoms: _409  and  _411
REMARK  170  A    between atoms: _411  and  _412
REMARK  171  A    between atoms: _414  and  _416
REMARK  172  A    between atoms: _416  and  _417
REMARK  173  A    between atoms: _419  and  _421
REMARK  174  A    between atoms: _421  and  _422
REMARK  175  A    between atoms: _421  and  _424
REMARK  176  A    between atoms: _424  and  _425
REMARK  177  A    between atoms: _428  and  _430
REMARK  178  A    between atoms: _430  and  _431
REMARK  179  A    between atoms: _433  and  _435
REMARK  180  A    between atoms: _435  and  _436
REMARK  181  A    between atoms: _438  and  _440
REMARK  182  A    between atoms: _440  and  _441
REMARK  183  A    between atoms: _440  and  _443
REMARK  184  A    between atoms: _443  and  _444
REMARK  185  A    between atoms: _450  and  _452
REMARK  186  A    between atoms: _452  and  _453
REMARK  187  A    between atoms: _452  and  _455
REMARK  188  A    between atoms: _455  and  _456
REMARK  189  A    between atoms: _459  and  _461
REMARK  190  A    between atoms: _461  and  _462
REMARK  191  A    between atoms: _461  and  _464
REMARK  192  A    between atoms: _467  and  _469
REMARK  193  A    between atoms: _469  and  _470
REMARK  194  A    between atoms: _469  and  _472
REMARK  195  A    between atoms: _472  and  _473
REMARK  196  A    between atoms: _476  and  _478
REMARK  197  A    between atoms: _478  and  _479
REMARK  198  A    between atoms: _478  and  _481
REMARK  199  A    between atoms: _481  and  _482
REMARK  200  A    between atoms: _486  and  _487
REMARK  201  A    between atoms: _492  and  _494
REMARK  202  A    between atoms: _494  and  _495
REMARK  203  A    between atoms: _494  and  _497
REMARK  204  A    between atoms: _500  and  _502
REMARK  205  A    between atoms: _502  and  _503
REMARK  206  A    between atoms: _502  and  _505
REMARK  207  A    between atoms: _505  and  _506
REMARK  208  A    between atoms: _511  and  _513
REMARK  209  A    between atoms: _513  and  _514
REMARK  210  A    between atoms: _513  and  _516
REMARK  211  A    between atoms: _516  and  _517
REMARK  212  A    between atoms: _520  and  _522
REMARK  213  A    between atoms: _522  and  _523
REMARK  214  A    between atoms: _522  and  _525
REMARK  215  A    between atoms: _525  and  _526
REMARK  216  A    between atoms: _529  and  _531
REMARK  217  A    between atoms: _531  and  _532
REMARK  218  A    between atoms: _534  and  _536
REMARK  219  A    between atoms: _536  and  _537
REMARK  220  A    between atoms: _536  and  _539
REMARK  221  A    between atoms: _539  and  _540
REMARK  222  A    between atoms: _540  and  _541
REMARK  223  A    between atoms: _541  and  _542
REMARK  224  A    between atoms: _551  and  _553
REMARK  225  A    between atoms: _553  and  _554
REMARK  226  A    between atoms: _553  and  _556
REMARK  227  A    between atoms: _556  and  _557
REMARK                            x       y       z     vdW  Elec       q    Type
REMARK                         _______ _______ _______ _____ _____    ______ ____
ROOT
ATOM      1  O   HOH     1      15.939  15.477  12.089  0.00  0.00    +0.000 OA
ENDROOT
TORSDOF 0
REMARK  Name = ../refined-set-2016/3a2o/3a2o_pocket.pdb
REMARK  227 active torsions:
REMARK  status: ('A' for Active; 'I' for Inactive)
REMARK    1  A    between atoms: _1  and  _3
REMARK    2  A    between atoms: _3  and  _4
REMARK    3  A    between atoms: _3  and  _6
REMARK    4  A    between atoms: _6  and  _7
REMARK    5  A    between atoms: _7  and  _8
REMARK    6  A    between atoms: _8  and  _9
REMARK    7  A    between atoms: _18  and  _20
REMARK    8  A    between atoms: _20  and  _21
REMARK    9  A    between atoms: _20  and  _23
REMARK   10  A    between atoms: _23  and  _24
REMARK   11  A    between atoms: _27  and  _29
REMARK   12  A    between atoms: _29  and  _30
REMARK   13  A    between atoms: _29  and  _32
REMARK   14  A    between atoms: _32  and  _33
REMARK   15  A    between atoms: _36  and  _38
REMARK   16  A    between atoms: _38  and  _39
REMARK   17  A    between atoms: _38  and  _41
REMARK   18  A    between atoms: _41  and  _42
REMARK   19  A    between atoms: _45  and  _47
REMARK   20  A    between atoms: _47  and  _48
REMARK   21  A    between atoms: _47  and  _50
REMARK   22  A    between atoms: _50  and  _51
REMARK   23  A    between atoms: _54  and  _56
REMARK   24  A    between atoms: _56  and  _57
REMARK   25  A    between atoms: _59  and  _61
REMARK   26  A    between atoms: _61  and  _62
REMARK   27  A    between atoms: _65  and  _67
REMARK   28  A    between atoms: _67  and  _68
REMARK   29  A    between atoms: _67  and  _70
REMARK   30  A    between atoms: _70  and  _71
REMARK   31  A    between atoms: _74  and  _76
REMARK   32  A    between atoms: _76  and  _77
REMARK   33  A    between atoms: _76  and  _79
REMARK   34  A    between atoms: _79  and  _80
REMARK   35  A    between atoms: _83  and  _85
REMARK   36  A    between atoms: _85  and  _86
REMARK   37  A    between atoms: _85  and  _88
REMARK   38  A    between atoms: _88  and  _89
REMARK   39  A    between atoms: _92  and  _94
REMARK   40  A    between atoms: _94  and  _95
REMARK   41  A    between atoms: _94  and  _97
REMARK   42  A    between atoms: _100  and  _102
REMARK   43  A    between atoms: _102  and  _103
REMARK   44  A    between atoms: _102  and  _105
REMARK   45  A    between atoms: _106  and  _107
REMARK   46  A    between atoms: _107  and  _108
REMARK   47  A    between atoms: _108  and  _109
REMARK   48  A    between atoms: _113  and  _115
REMARK   49  A    between atoms: _115  and  _116
REMARK   50  A    between atoms: _115  and  _118
REMARK   51  A    between atoms: _118  and  _119
REMARK   52  A    between atoms: _119  and  _120
REMARK   53  A    between atoms: _122  and  _124
REMARK   54  A    between atoms: _124  and  _125
REMARK   55  A    between atoms: _124  and  _127
REMARK   56  A    between atoms: _127  and  _128
REMARK   57  A    between atoms: _131  and  _133
REMARK   58  A    between atoms: _133  and  _134
REMARK   59  A    between atoms: _136  and  _138
REMARK   60  A    between atoms: _138  and  _139
REMARK   61  A    between atoms: _141  and  _143
REMARK   62  A    between atoms: _143  and  _144
REMARK   63  A    between atoms: _143  and  _146
REMARK   64  A    between atoms: _146  and  _147
REMARK   65  A    between atoms: _150  and  _152
REMARK   66  A    between atoms: _152  and  _153
REMARK   67  A    between atoms: _155  and  _157
REMARK   68  A    between atoms: _157  and  _158
REMARK   69  A    between atoms: _160  and  _162
REMARK   70  A    between atoms: _162  and  _163
REMARK   71  A    between atoms: _162  and  _165
REMARK   72  A    between atoms: _165  and  _166
REMARK   73  A    between atoms: _169  and  _171
REMARK   74  A    between atoms: _171  and  _172
REMARK   75  A    between atoms: _171  and  _174
REMARK   76  A    between atoms: _177  and  _179
REMARK   77  A    between atoms: _179  and  _180
REMARK   78  A    between atoms: _179  and  _182
REMARK   79  A    between atoms: _182  and  _183
REMARK   80  A    between atoms: _187  and  _188
REMARK   81  A    between atoms: _193  and  _195
REMARK   82  A    between atoms: _195  and  _196
REMARK   83  A    between atoms: _195  and  _198
REMARK   84  A    between atoms: _198  and  _199
REMARK   85  A    between atoms: _203  and  _204
REMARK   86  A    between atoms: _209  and  _211
REMARK   87  A    between atoms: _211  and  _212
REMARK   88  A    between atoms: _211  and  _214
REMARK   89  A    between atoms: _217  and  _219
REMARK   90  A    between atoms: _219  and  _220
REMARK   91  A    between atoms: _219  and  _222
REMARK   92  A    between atoms: _222  and  _223
REMARK   93  A    between atoms: _228  and  _230
REMARK   94  A    between atoms: _230  and  _231
REMARK   95  A    between atoms: _230  and  _233
REMARK   96  A    between atoms: _233  and  _234
REMARK   97  A    between atoms: _237  and  _239
REMARK   98  A    between atoms: _239  and  _240
REMARK   99  A    between atoms: _239  and  _242
REMARK  100  A    between atoms: _242  and  _243
REMARK  101  A    between atoms: _246  and  _248
REMARK  102  A    between atoms: _248  and  _249
REMARK  103  A    between atoms: _251  and  _253
REMARK  104  A    between atoms: _253  and  _254
REMARK  105  A    between atoms: _253  and  _256
REMARK  106  A    between atoms: _256  and  _257
REMARK  107  A    between atoms: _257  and  _258
REMARK  108  A    between atoms: _258  and  _259
REMARK  109  A    between atoms: _268  and  _270
REMARK  110  A    between atoms: _270  and  _271
REMARK  111  A    between atoms: _270  and  _273
REMARK  112  A    between atoms: _273  and  _274
REMARK  113  A    between atoms: _279  and  _281
REMARK  114  A    between atoms: _281  and  _282
REMARK  115  A    between atoms: _281  and  _284
REMARK  116  A    between atoms: _284  and  _285
REMARK  117  A    between atoms: _285  and  _286
REMARK  118  A    between atoms: _286  and  _287
REMARK  119  A    between atoms: _296  and  _298
REMARK  120  A    between atoms: _298  and  _299
REMARK  121  A    between atoms: _298  and  _301
REMARK  122  A    between atoms: _301  and  _302
REMARK  123  A    between atoms: _305  and  _307
REMARK  124  A    between atoms: _307  and  _308
REMARK  125  A    between atoms: _307  and  _310
REMARK  126  A    between atoms: _310  and  _311
REMARK  127  A    between atoms: _314  and  _316
REMARK  128  A    between atoms: _316  and  _317
REMARK  129  A    between atoms: _316  and  _319
REMARK  130  A    between atoms: _319  and  _320
REMARK  131  A    between atoms: _323  and  _325
REMARK  132  A    between atoms: _325  and  _326
REMARK  133  A    between atoms: _325  and  _328
REMARK  134  A    between atoms: _328  and  _329
REMARK  135  A    between atoms: _332  and  _334
REMARK  136  A    between atoms: _334  and  _335
REMARK  137  A    between atoms: _337  and  _339
REMARK  138  A    between atoms: _339  and  _340
REMARK  139  A    between atoms: _343  and  _345
REMARK  140  A    between atoms: _345  and  _346
REMARK  141  A    between atoms: _345  and  _348
REMARK  142  A    between atoms: _348  and  _349
REMARK  143  A    between atoms: _352  and  _354
REMARK  144  A    between atoms: _354  and  _355
REMARK  145  A    between atoms: _354  and  _357
REMARK  146  A    between atoms: _357  and  _358
REMARK  147  A    between atoms: _361  and  _363
REMARK  148  A    between atoms: _363  and  _364
REMARK  149  A    between atoms: _363  and  _366
REMARK  150  A    between atoms: _366  and  _367
REMARK  151  A    between atoms: _370  and  _372
REMARK  152  A    between atoms: _372  and  _373
REMARK  153  A    between atoms: _372  and  _375
REMARK  154  A    between atoms: _378  and  _380
REMARK  155  A    between atoms: _380  and  _381
REMARK  156  A    between atoms: _380  and  _383
REMARK  157  A    between atoms: _384  and  _385
REMARK  158  A    between atoms: _385  and  _386
REMARK  159  A    between atoms: _386  and  _387
REMARK  160  A    between atoms: _391  and  _393
REMARK  161  A    between atoms: _393  and  _394
REMARK  162  A    between atoms: _393  and  _396
REMARK  163  A    between atoms: _396  and  _397
REMARK  164  A    between atoms: _397  and  _398
REMARK  165  A    between atoms: _400  and  _402
REMARK  166  A    between atoms: _402  and  _403
REMARK  167  A    between atoms: _402  and  _405
REMARK  168  A    between atoms: _405  and  _406
REMARK  169  A    between atoms: _409  and  _411
REMARK  170  A    between atoms: _411  and  _412
REMARK  171  A    between atoms: _414  and  _416
REMARK  172  A    between atoms: _416  and  _417
REMARK  173  A    between atoms: _419  and  _421
REMARK  174  A    between atoms: _421  and  _422
REMARK  175  A    between atoms: _421  and  _424
REMARK  176  A    between atoms: _424  and  _425
REMARK  177  A    between atoms: _428  and  _430
REMARK  178  A    between atoms: _430  and  _431
REMARK  179  A    between atoms: _433  and  _435
REMARK  180  A    between atoms: _435  and  _436
REMARK  181  A    between atoms: _438  and  _440
REMARK  182  A    between atoms: _440  and  _441
REMARK  183  A    between atoms: _440  and  _443
REMARK  184  A    between atoms: _443  and  _444
REMARK  185  A    between atoms: _450  and  _452
REMARK  186  A    between atoms: _452  and  _453
REMARK  187  A    between atoms: _452  and  _455
REMARK  188  A    between atoms: _455  and  _456
REMARK  189  A    between atoms: _459  and  _461
REMARK  190  A    between atoms: _461  and  _462
REMARK  191  A    between atoms: _461  and  _464
REMARK  192  A    between atoms: _467  and  _469
REMARK  193  A    between atoms: _469  and  _470
REMARK  194  A    between atoms: _469  and  _472
REMARK  195  A    between atoms: _472  and  _473
REMARK  196  A    between atoms: _476  and  _478
REMARK  197  A    between atoms: _478  and  _479
REMARK  198  A    between atoms: _478  and  _481
REMARK  199  A    between atoms: _481  and  _482
REMARK  200  A    between atoms: _486  and  _487
REMARK  201  A    between atoms: _492  and  _494
REMARK  202  A    between atoms: _494  and  _495
REMARK  203  A    between atoms: _494  and  _497
REMARK  204  A    between atoms: _500  and  _502
REMARK  205  A    between atoms: _502  and  _503
REMARK  206  A    between atoms: _502  and  _505
REMARK  207  A    between atoms: _505  and  _506
REMARK  208  A    between atoms: _511  and  _513
REMARK  209  A    between atoms: _513  and  _514
REMARK  210  A    between atoms: _513  and  _516
REMARK  211  A    between atoms: _516  and  _517
REMARK  212  A    between atoms: _520  and  _522
REMARK  213  A    between atoms: _522  and  _523
REMARK  214  A    between atoms: _522  and  _525
REMARK  215  A    between atoms: _525  and  _526
REMARK  216  A    between atoms: _529  and  _531
REMARK  217  A    between atoms: _531  and  _532
REMARK  218  A    between atoms: _534  and  _536
REMARK  219  A    between atoms: _536  and  _537
REMARK  220  A    between atoms: _536  and  _539
REMARK  221  A    between atoms: _539  and  _540
REMARK  222  A    between atoms: _540  and  _541
REMARK  223  A    between atoms: _541  and  _542
REMARK  224  A    between atoms: _551  and  _553
REMARK  225  A    between atoms: _553  and  _554
REMARK  226  A    between atoms: _553  and  _556
REMARK  227  A    between atoms: _556  and  _557
REMARK                            x       y       z     vdW  Elec       q    Type
REMARK                         _______ _______ _______ _____ _____    ______ ____
ROOT
ATOM      1  O   HOH     1      11.841  16.607  14.428  0.00  0.00    +0.000 OA
ENDROOT
TORSDOF 0
REMARK  Name = ../refined-set-2016/3a2o/3a2o_pocket.pdb
REMARK  227 active torsions:
REMARK  status: ('A' for Active; 'I' for Inactive)
REMARK    1  A    between atoms: _1  and  _3
REMARK    2  A    between atoms: _3  and  _4
REMARK    3  A    between atoms: _3  and  _6
REMARK    4  A    between atoms: _6  and  _7
REMARK    5  A    between atoms: _7  and  _8
REMARK    6  A    between atoms: _8  and  _9
REMARK    7  A    between atoms: _18  and  _20
REMARK    8  A    between atoms: _20  and  _21
REMARK    9  A    between atoms: _20  and  _23
REMARK   10  A    between atoms: _23  and  _24
REMARK   11  A    between atoms: _27  and  _29
REMARK   12  A    between atoms: _29  and  _30
REMARK   13  A    between atoms: _29  and  _32
REMARK   14  A    between atoms: _32  and  _33
REMARK   15  A    between atoms: _36  and  _38
REMARK   16  A    between atoms: _38  and  _39
REMARK   17  A    between atoms: _38  and  _41
REMARK   18  A    between atoms: _41  and  _42
REMARK   19  A    between atoms: _45  and  _47
REMARK   20  A    between atoms: _47  and  _48
REMARK   21  A    between atoms: _47  and  _50
REMARK   22  A    between atoms: _50  and  _51
REMARK   23  A    between atoms: _54  and  _56
REMARK   24  A    between atoms: _56  and  _57
REMARK   25  A    between atoms: _59  and  _61
REMARK   26  A    between atoms: _61  and  _62
REMARK   27  A    between atoms: _65  and  _67
REMARK   28  A    between atoms: _67  and  _68
REMARK   29  A    between atoms: _67  and  _70
REMARK   30  A    between atoms: _70  and  _71
REMARK   31  A    between atoms: _74  and  _76
REMARK   32  A    between atoms: _76  and  _77
REMARK   33  A    between atoms: _76  and  _79
REMARK   34  A    between atoms: _79  and  _80
REMARK   35  A    between atoms: _83  and  _85
REMARK   36  A    between atoms: _85  and  _86
REMARK   37  A    between atoms: _85  and  _88
REMARK   38  A    between atoms: _88  and  _89
REMARK   39  A    between atoms: _92  and  _94
REMARK   40  A    between atoms: _94  and  _95
REMARK   41  A    between atoms: _94  and  _97
REMARK   42  A    between atoms: _100  and  _102
REMARK   43  A    between atoms: _102  and  _103
REMARK   44  A    between atoms: _102  and  _105
REMARK   45  A    between atoms: _106  and  _107
REMARK   46  A    between atoms: _107  and  _108
REMARK   47  A    between atoms: _108  and  _109
REMARK   48  A    between atoms: _113  and  _115
REMARK   49  A    between atoms: _115  and  _116
REMARK   50  A    between atoms: _115  and  _118
REMARK   51  A    between atoms: _118  and  _119
REMARK   52  A    between atoms: _119  and  _120
REMARK   53  A    between atoms: _122  and  _124
REMARK   54  A    between atoms: _124  and  _125
REMARK   55  A    between atoms: _124  and  _127
REMARK   56  A    between atoms: _127  and  _128
REMARK   57  A    between atoms: _131  and  _133
REMARK   58  A    between atoms: _133  and  _134
REMARK   59  A    between atoms: _136  and  _138
REMARK   60  A    between atoms: _138  and  _139
REMARK   61  A    between atoms: _141  and  _143
REMARK   62  A    between atoms: _143  and  _144
REMARK   63  A    between atoms: _143  and  _146
REMARK   64  A    between atoms: _146  and  _147
REMARK   65  A    between atoms: _150  and  _152
REMARK   66  A    between atoms: _152  and  _153
REMARK   67  A    between atoms: _155  and  _157
REMARK   68  A    between atoms: _157  and  _158
REMARK   69  A    between atoms: _160  and  _162
REMARK   70  A    between atoms: _162  and  _163
REMARK   71  A    between atoms: _162  and  _165
REMARK   72  A    between atoms: _165  and  _166
REMARK   73  A    between atoms: _169  and  _171
REMARK   74  A    between atoms: _171  and  _172
REMARK   75  A    between atoms: _171  and  _174
REMARK   76  A    between atoms: _177  and  _179
REMARK   77  A    between atoms: _179  and  _180
REMARK   78  A    between atoms: _179  and  _182
REMARK   79  A    between atoms: _182  and  _183
REMARK   80  A    between atoms: _187  and  _188
REMARK   81  A    between atoms: _193  and  _195
REMARK   82  A    between atoms: _195  and  _196
REMARK   83  A    between atoms: _195  and  _198
REMARK   84  A    between atoms: _198  and  _199
REMARK   85  A    between atoms: _203  and  _204
REMARK   86  A    between atoms: _209  and  _211
REMARK   87  A    between atoms: _211  and  _212
REMARK   88  A    between atoms: _211  and  _214
REMARK   89  A    between atoms: _217  and  _219
REMARK   90  A    between atoms: _219  and  _220
REMARK   91  A    between atoms: _219  and  _222
REMARK   92  A    between atoms: _222  and  _223
REMARK   93  A    between atoms: _228  and  _230
REMARK   94  A    between atoms: _230  and  _231
REMARK   95  A    between atoms: _230  and  _233
REMARK   96  A    between atoms: _233  and  _234
REMARK   97  A    between atoms: _237  and  _239
REMARK   98  A    between atoms: _239  and  _240
REMARK   99  A    between atoms: _239  and  _242
REMARK  100  A    between atoms: _242  and  _243
REMARK  101  A    between atoms: _246  and  _248
REMARK  102  A    between atoms: _248  and  _249
REMARK  103  A    between atoms: _251  and  _253
REMARK  104  A    between atoms: _253  and  _254
REMARK  105  A    between atoms: _253  and  _256
REMARK  106  A    between atoms: _256  and  _257
REMARK  107  A    between atoms: _257  and  _258
REMARK  108  A    between atoms: _258  and  _259
REMARK  109  A    between atoms: _268  and  _270
REMARK  110  A    between atoms: _270  and  _271
REMARK  111  A    between atoms: _270  and  _273
REMARK  112  A    between atoms: _273  and  _274
REMARK  113  A    between atoms: _279  and  _281
REMARK  114  A    between atoms: _281  and  _282
REMARK  115  A    between atoms: _281  and  _284
REMARK  116  A    between atoms: _284  and  _285
REMARK  117  A    between atoms: _285  and  _286
REMARK  118  A    between atoms: _286  and  _287
REMARK  119  A    between atoms: _296  and  _298
REMARK  120  A    between atoms: _298  and  _299
REMARK  121  A    between atoms: _298  and  _301
REMARK  122  A    between atoms: _301  and  _302
REMARK  123  A    between atoms: _305  and  _307
REMARK  124  A    between atoms: _307  and  _308
REMARK  125  A    between atoms: _307  and  _310
REMARK  126  A    between atoms: _310  and  _311
REMARK  127  A    between atoms: _314  and  _316
REMARK  128  A    between atoms: _316  and  _317
REMARK  129  A    between atoms: _316  and  _319
REMARK  130  A    between atoms: _319  and  _320
REMARK  131  A    between atoms: _323  and  _325
REMARK  132  A    between atoms: _325  and  _326
REMARK  133  A    between atoms: _325  and  _328
REMARK  134  A    between atoms: _328  and  _329
REMARK  135  A    between atoms: _332  and  _334
REMARK  136  A    between atoms: _334  and  _335
REMARK  137  A    between atoms: _337  and  _339
REMARK  138  A    between atoms: _339  and  _340
REMARK  139  A    between atoms: _343  and  _345
REMARK  140  A    between atoms: _345  and  _346
REMARK  141  A    between atoms: _345  and  _348
REMARK  142  A    between atoms: _348  and  _349
REMARK  143  A    between atoms: _352  and  _354
REMARK  144  A    between atoms: _354  and  _355
REMARK  145  A    between atoms: _354  and  _357
REMARK  146  A    between atoms: _357  and  _358
REMARK  147  A    between atoms: _361  and  _363
REMARK  148  A    between atoms: _363  and  _364
REMARK  149  A    between atoms: _363  and  _366
REMARK  150  A    between atoms: _366  and  _367
REMARK  151  A    between atoms: _370  and  _372
REMARK  152  A    between atoms: _372  and  _373
REMARK  153  A    between atoms: _372  and  _375
REMARK  154  A    between atoms: _378  and  _380
REMARK  155  A    between atoms: _380  and  _381
REMARK  156  A    between atoms: _380  and  _383
REMARK  157  A    between atoms: _384  and  _385
REMARK  158  A    between atoms: _385  and  _386
REMARK  159  A    between atoms: _386  and  _387
REMARK  160  A    between atoms: _391  and  _393
REMARK  161  A    between atoms: _393  and  _394
REMARK  162  A    between atoms: _393  and  _396
REMARK  163  A    between atoms: _396  and  _397
REMARK  164  A    between atoms: _397  and  _398
REMARK  165  A    between atoms: _400  and  _402
REMARK  166  A    between atoms: _402  and  _403
REMARK  167  A    between atoms: _402  and  _405
REMARK  168  A    between atoms: _405  and  _406
REMARK  169  A    between atoms: _409  and  _411
REMARK  170  A    between atoms: _411  and  _412
REMARK  171  A    between atoms: _414  and  _416
REMARK  172  A    between atoms: _416  and  _417
REMARK  173  A    between atoms: _419  and  _421
REMARK  174  A    between atoms: _421  and  _422
REMARK  175  A    between atoms: _421  and  _424
REMARK  176  A    between atoms: _424  and  _425
REMARK  177  A    between atoms: _428  and  _430
REMARK  178  A    between atoms: _430  and  _431
REMARK  179  A    between atoms: _433  and  _435
REMARK  180  A    between atoms: _435  and  _436
REMARK  181  A    between atoms: _438  and  _440
REMARK  182  A    between atoms: _440  and  _441
REMARK  183  A    between atoms: _440  and  _443
REMARK  184  A    between atoms: _443  and  _444
REMARK  185  A    between atoms: _450  and  _452
REMARK  186  A    between atoms: _452  and  _453
REMARK  187  A    between atoms: _452  and  _455
REMARK  188  A    between atoms: _455  and  _456
REMARK  189  A    between atoms: _459  and  _461
REMARK  190  A    between atoms: _461  and  _462
REMARK  191  A    between atoms: _461  and  _464
REMARK  192  A    between atoms: _467  and  _469
REMARK  193  A    between atoms: _469  and  _470
REMARK  194  A    between atoms: _469  and  _472
REMARK  195  A    between atoms: _472  and  _473
REMARK  196  A    between atoms: _476  and  _478
REMARK  197  A    between atoms: _478  and  _479
REMARK  198  A    between atoms: _478  and  _481
REMARK  199  A    between atoms: _481  and  _482
REMARK  200  A    between atoms: _486  and  _487
REMARK  201  A    between atoms: _492  and  _494
REMARK  202  A    between atoms: _494  and  _495
REMARK  203  A    between atoms: _494  and  _497
REMARK  204  A    between atoms: _500  and  _502
REMARK  205  A    between atoms: _502  and  _503
REMARK  206  A    between atoms: _502  and  _505
REMARK  207  A    between atoms: _505  and  _506
REMARK  208  A    between atoms: _511  and  _513
REMARK  209  A    between atoms: _513  and  _514
REMARK  210  A    between atoms: _513  and  _516
REMARK  211  A    between atoms: _516  and  _517
REMARK  212  A    between atoms: _520  and  _522
REMARK  213  A    between atoms: _522  and  _523
REMARK  214  A    between atoms: _522  and  _525
REMARK  215  A    between atoms: _525  and  _526
REMARK  216  A    between atoms: _529  and  _531
REMARK  217  A    between atoms: _531  and  _532
REMARK  218  A    between atoms: _534  and  _536
REMARK  219  A    between atoms: _536  and  _537
REMARK  220  A    between atoms: _536  and  _539
REMARK  221  A    between atoms: _539  and  _540
REMARK  222  A    between atoms: _540  and  _541
REMARK  223  A    between atoms: _541  and  _542
REMARK  224  A    between atoms: _551  and  _553
REMARK  225  A    between atoms: _553  and  _554
REMARK  226  A    between atoms: _553  and  _556
REMARK  227  A    between atoms: _556  and  _557
REMARK                            x       y       z     vdW  Elec       q    Type
REMARK                         _______ _______ _______ _____ _____    ______ ____
ROOT
ATOM      1  O   HOH     1      13.225  16.068  11.892  0.00  0.00    +0.000 OA
ENDROOT
TORSDOF 0
REMARK  Name = ../refined-set-2016/3a2o/3a2o_pocket.pdb
REMARK  227 active torsions:
REMARK  status: ('A' for Active; 'I' for Inactive)
REMARK    1  A    between atoms: _1  and  _3
REMARK    2  A    between atoms: _3  and  _4
REMARK    3  A    between atoms: _3  and  _6
REMARK    4  A    between atoms: _6  and  _7
REMARK    5  A    between atoms: _7  and  _8
REMARK    6  A    between atoms: _8  and  _9
REMARK    7  A    between atoms: _18  and  _20
REMARK    8  A    between atoms: _20  and  _21
REMARK    9  A    between atoms: _20  and  _23
REMARK   10  A    between atoms: _23  and  _24
REMARK   11  A    between atoms: _27  and  _29
REMARK   12  A    between atoms: _29  and  _30
REMARK   13  A    between atoms: _29  and  _32
REMARK   14  A    between atoms: _32  and  _33
REMARK   15  A    between atoms: _36  and  _38
REMARK   16  A    between atoms: _38  and  _39
REMARK   17  A    between atoms: _38  and  _41
REMARK   18  A    between atoms: _41  and  _42
REMARK   19  A    between atoms: _45  and  _47
REMARK   20  A    between atoms: _47  and  _48
REMARK   21  A    between atoms: _47  and  _50
REMARK   22  A    between atoms: _50  and  _51
REMARK   23  A    between atoms: _54  and  _56
REMARK   24  A    between atoms: _56  and  _57
REMARK   25  A    between atoms: _59  and  _61
REMARK   26  A    between atoms: _61  and  _62
REMARK   27  A    between atoms: _65  and  _67
REMARK   28  A    between atoms: _67  and  _68
REMARK   29  A    between atoms: _67  and  _70
REMARK   30  A    between atoms: _70  and  _71
REMARK   31  A    between atoms: _74  and  _76
REMARK   32  A    between atoms: _76  and  _77
REMARK   33  A    between atoms: _76  and  _79
REMARK   34  A    between atoms: _79  and  _80
REMARK   35  A    between atoms: _83  and  _85
REMARK   36  A    between atoms: _85  and  _86
REMARK   37  A    between atoms: _85  and  _88
REMARK   38  A    between atoms: _88  and  _89
REMARK   39  A    between atoms: _92  and  _94
REMARK   40  A    between atoms: _94  and  _95
REMARK   41  A    between atoms: _94  and  _97
REMARK   42  A    between atoms: _100  and  _102
REMARK   43  A    between atoms: _102  and  _103
REMARK   44  A    between atoms: _102  and  _105
REMARK   45  A    between atoms: _106  and  _107
REMARK   46  A    between atoms: _107  and  _108
REMARK   47  A    between atoms: _108  and  _109
REMARK   48  A    between atoms: _113  and  _115
REMARK   49  A    between atoms: _115  and  _116
REMARK   50  A    between atoms: _115  and  _118
REMARK   51  A    between atoms: _118  and  _119
REMARK   52  A    between atoms: _119  and  _120
REMARK   53  A    between atoms: _122  and  _124
REMARK   54  A    between atoms: _124  and  _125
REMARK   55  A    between atoms: _124  and  _127
REMARK   56  A    between atoms: _127  and  _128
REMARK   57  A    between atoms: _131  and  _133
REMARK   58  A    between atoms: _133  and  _134
REMARK   59  A    between atoms: _136  and  _138
REMARK   60  A    between atoms: _138  and  _139
REMARK   61  A    between atoms: _141  and  _143
REMARK   62  A    between atoms: _143  and  _144
REMARK   63  A    between atoms: _143  and  _146
REMARK   64  A    between atoms: _146  and  _147
REMARK   65  A    between atoms: _150  and  _152
REMARK   66  A    between atoms: _152  and  _153
REMARK   67  A    between atoms: _155  and  _157
REMARK   68  A    between atoms: _157  and  _158
REMARK   69  A    between atoms: _160  and  _162
REMARK   70  A    between atoms: _162  and  _163
REMARK   71  A    between atoms: _162  and  _165
REMARK   72  A    between atoms: _165  and  _166
REMARK   73  A    between atoms: _169  and  _171
REMARK   74  A    between atoms: _171  and  _172
REMARK   75  A    between atoms: _171  and  _174
REMARK   76  A    between atoms: _177  and  _179
REMARK   77  A    between atoms: _179  and  _180
REMARK   78  A    between atoms: _179  and  _182
REMARK   79  A    between atoms: _182  and  _183
REMARK   80  A    between atoms: _187  and  _188
REMARK   81  A    between atoms: _193  and  _195
REMARK   82  A    between atoms: _195  and  _196
REMARK   83  A    between atoms: _195  and  _198
REMARK   84  A    between atoms: _198  and  _199
REMARK   85  A    between atoms: _203  and  _204
REMARK   86  A    between atoms: _209  and  _211
REMARK   87  A    between atoms: _211  and  _212
REMARK   88  A    between atoms: _211  and  _214
REMARK   89  A    between atoms: _217  and  _219
REMARK   90  A    between atoms: _219  and  _220
REMARK   91  A    between atoms: _219  and  _222
REMARK   92  A    between atoms: _222  and  _223
REMARK   93  A    between atoms: _228  and  _230
REMARK   94  A    between atoms: _230  and  _231
REMARK   95  A    between atoms: _230  and  _233
REMARK   96  A    between atoms: _233  and  _234
REMARK   97  A    between atoms: _237  and  _239
REMARK   98  A    between atoms: _239  and  _240
REMARK   99  A    between atoms: _239  and  _242
REMARK  100  A    between atoms: _242  and  _243
REMARK  101  A    between atoms: _246  and  _248
REMARK  102  A    between atoms: _248  and  _249
REMARK  103  A    between atoms: _251  and  _253
REMARK  104  A    between atoms: _253  and  _254
REMARK  105  A    between atoms: _253  and  _256
REMARK  106  A    between atoms: _256  and  _257
REMARK  107  A    between atoms: _257  and  _258
REMARK  108  A    between atoms: _258  and  _259
REMARK  109  A    between atoms: _268  and  _270
REMARK  110  A    between atoms: _270  and  _271
REMARK  111  A    between atoms: _270  and  _273
REMARK  112  A    between atoms: _273  and  _274
REMARK  113  A    between atoms: _279  and  _281
REMARK  114  A    between atoms: _281  and  _282
REMARK  115  A    between atoms: _281  and  _284
REMARK  116  A    between atoms: _284  and  _285
REMARK  117  A    between atoms: _285  and  _286
REMARK  118  A    between atoms: _286  and  _287
REMARK  119  A    between atoms: _296  and  _298
REMARK  120  A    between atoms: _298  and  _299
REMARK  121  A    between atoms: _298  and  _301
REMARK  122  A    between atoms: _301  and  _302
REMARK  123  A    between atoms: _305  and  _307
REMARK  124  A    between atoms: _307  and  _308
REMARK  125  A    between atoms: _307  and  _310
REMARK  126  A    between atoms: _310  and  _311
REMARK  127  A    between atoms: _314  and  _316
REMARK  128  A    between atoms: _316  and  _317
REMARK  129  A    between atoms: _316  and  _319
REMARK  130  A    between atoms: _319  and  _320
REMARK  131  A    between atoms: _323  and  _325
REMARK  132  A    between atoms: _325  and  _326
REMARK  133  A    between atoms: _325  and  _328
REMARK  134  A    between atoms: _328  and  _329
REMARK  135  A    between atoms: _332  and  _334
REMARK  136  A    between atoms: _334  and  _335
REMARK  137  A    between atoms: _337  and  _339
REMARK  138  A    between atoms: _339  and  _340
REMARK  139  A    between atoms: _343  and  _345
REMARK  140  A    between atoms: _345  and  _346
REMARK  141  A    between atoms: _345  and  _348
REMARK  142  A    between atoms: _348  and  _349
REMARK  143  A    between atoms: _352  and  _354
REMARK  144  A    between atoms: _354  and  _355
REMARK  145  A    between atoms: _354  and  _357
REMARK  146  A    between atoms: _357  and  _358
REMARK  147  A    between atoms: _361  and  _363
REMARK  148  A    between atoms: _363  and  _364
REMARK  149  A    between atoms: _363  and  _366
REMARK  150  A    between atoms: _366  and  _367
REMARK  151  A    between atoms: _370  and  _372
REMARK  152  A    between atoms: _372  and  _373
REMARK  153  A    between atoms: _372  and  _375
REMARK  154  A    between atoms: _378  and  _380
REMARK  155  A    between atoms: _380  and  _381
REMARK  156  A    between atoms: _380  and  _383
REMARK  157  A    between atoms: _384  and  _385
REMARK  158  A    between atoms: _385  and  _386
REMARK  159  A    between atoms: _386  and  _387
REMARK  160  A    between atoms: _391  and  _393
REMARK  161  A    between atoms: _393  and  _394
REMARK  162  A    between atoms: _393  and  _396
REMARK  163  A    between atoms: _396  and  _397
REMARK  164  A    between atoms: _397  and  _398
REMARK  165  A    between atoms: _400  and  _402
REMARK  166  A    between atoms: _402  and  _403
REMARK  167  A    between atoms: _402  and  _405
REMARK  168  A    between atoms: _405  and  _406
REMARK  169  A    between atoms: _409  and  _411
REMARK  170  A    between atoms: _411  and  _412
REMARK  171  A    between atoms: _414  and  _416
REMARK  172  A    between atoms: _416  and  _417
REMARK  173  A    between atoms: _419  and  _421
REMARK  174  A    between atoms: _421  and  _422
REMARK  175  A    between atoms: _421  and  _424
REMARK  176  A    between atoms: _424  and  _425
REMARK  177  A    between atoms: _428  and  _430
REMARK  178  A    between atoms: _430  and  _431
REMARK  179  A    between atoms: _433  and  _435
REMARK  180  A    between atoms: _435  and  _436
REMARK  181  A    between atoms: _438  and  _440
REMARK  182  A    between atoms: _440  and  _441
REMARK  183  A    between atoms: _440  and  _443
REMARK  184  A    between atoms: _443  and  _444
REMARK  185  A    between atoms: _450  and  _452
REMARK  186  A    between atoms: _452  and  _453
REMARK  187  A    between atoms: _452  and  _455
REMARK  188  A    between atoms: _455  and  _456
REMARK  189  A    between atoms: _459  and  _461
REMARK  190  A    between atoms: _461  and  _462
REMARK  191  A    between atoms: _461  and  _464
REMARK  192  A    between atoms: _467  and  _469
REMARK  193  A    between atoms: _469  and  _470
REMARK  194  A    between atoms: _469  and  _472
REMARK  195  A    between atoms: _472  and  _473
REMARK  196  A    between atoms: _476  and  _478
REMARK  197  A    between atoms: _478  and  _479
REMARK  198  A    between atoms: _478  and  _481
REMARK  199  A    between atoms: _481  and  _482
REMARK  200  A    between atoms: _486  and  _487
REMARK  201  A    between atoms: _492  and  _494
REMARK  202  A    between atoms: _494  and  _495
REMARK  203  A    between atoms: _494  and  _497
REMARK  204  A    between atoms: _500  and  _502
REMARK  205  A    between atoms: _502  and  _503
REMARK  206  A    between atoms: _502  and  _505
REMARK  207  A    between atoms: _505  and  _506
REMARK  208  A    between atoms: _511  and  _513
REMARK  209  A    between atoms: _513  and  _514
REMARK  210  A    between atoms: _513  and  _516
REMARK  211  A    between atoms: _516  and  _517
REMARK  212  A    between atoms: _520  and  _522
REMARK  213  A    between atoms: _522  and  _523
REMARK  214  A    between atoms: _522  and  _525
REMARK  215  A    between atoms: _525  and  _526
REMARK  216  A    between atoms: _529  and  _531
REMARK  217  A    between atoms: _531  and  _532
REMARK  218  A    between atoms: _534  and  _536
REMARK  219  A    between atoms: _536  and  _537
REMARK  220  A    between atoms: _536  and  _539
REMARK  221  A    between atoms: _539  and  _540
REMARK  222  A    between atoms: _540  and  _541
REMARK  223  A    between atoms: _541  and  _542
REMARK  224  A    between atoms: _551  and  _553
REMARK  225  A    between atoms: _553  and  _554
REMARK  226  A    between atoms: _553  and  _556
REMARK  227  A    between atoms: _556  and  _557
REMARK                            x       y       z     vdW  Elec       q    Type
REMARK                         _______ _______ _______ _____ _____    ______ ____
ROOT
ATOM      1  O   HOH     1       6.553   8.172  21.470  0.00  0.00    +0.000 OA
ENDROOT
TORSDOF 0
REMARK  Name = ../refined-set-2016/3a2o/3a2o_pocket.pdb
REMARK  227 active torsions:
REMARK  status: ('A' for Active; 'I' for Inactive)
REMARK    1  A    between atoms: _1  and  _3
REMARK    2  A    between atoms: _3  and  _4
REMARK    3  A    between atoms: _3  and  _6
REMARK    4  A    between atoms: _6  and  _7
REMARK    5  A    between atoms: _7  and  _8
REMARK    6  A    between atoms: _8  and  _9
REMARK    7  A    between atoms: _18  and  _20
REMARK    8  A    between atoms: _20  and  _21
REMARK    9  A    between atoms: _20  and  _23
REMARK   10  A    between atoms: _23  and  _24
REMARK   11  A    between atoms: _27  and  _29
REMARK   12  A    between atoms: _29  and  _30
REMARK   13  A    between atoms: _29  and  _32
REMARK   14  A    between atoms: _32  and  _33
REMARK   15  A    between atoms: _36  and  _38
REMARK   16  A    between atoms: _38  and  _39
REMARK   17  A    between atoms: _38  and  _41
REMARK   18  A    between atoms: _41  and  _42
REMARK   19  A    between atoms: _45  and  _47
REMARK   20  A    between atoms: _47  and  _48
REMARK   21  A    between atoms: _47  and  _50
REMARK   22  A    between atoms: _50  and  _51
REMARK   23  A    between atoms: _54  and  _56
REMARK   24  A    between atoms: _56  and  _57
REMARK   25  A    between atoms: _59  and  _61
REMARK   26  A    between atoms: _61  and  _62
REMARK   27  A    between atoms: _65  and  _67
REMARK   28  A    between atoms: _67  and  _68
REMARK   29  A    between atoms: _67  and  _70
REMARK   30  A    between atoms: _70  and  _71
REMARK   31  A    between atoms: _74  and  _76
REMARK   32  A    between atoms: _76  and  _77
REMARK   33  A    between atoms: _76  and  _79
REMARK   34  A    between atoms: _79  and  _80
REMARK   35  A    between atoms: _83  and  _85
REMARK   36  A    between atoms: _85  and  _86
REMARK   37  A    between atoms: _85  and  _88
REMARK   38  A    between atoms: _88  and  _89
REMARK   39  A    between atoms: _92  and  _94
REMARK   40  A    between atoms: _94  and  _95
REMARK   41  A    between atoms: _94  and  _97
REMARK   42  A    between atoms: _100  and  _102
REMARK   43  A    between atoms: _102  and  _103
REMARK   44  A    between atoms: _102  and  _105
REMARK   45  A    between atoms: _106  and  _107
REMARK   46  A    between atoms: _107  and  _108
REMARK   47  A    between atoms: _108  and  _109
REMARK   48  A    between atoms: _113  and  _115
REMARK   49  A    between atoms: _115  and  _116
REMARK   50  A    between atoms: _115  and  _118
REMARK   51  A    between atoms: _118  and  _119
REMARK   52  A    between atoms: _119  and  _120
REMARK   53  A    between atoms: _122  and  _124
REMARK   54  A    between atoms: _124  and  _125
REMARK   55  A    between atoms: _124  and  _127
REMARK   56  A    between atoms: _127  and  _128
REMARK   57  A    between atoms: _131  and  _133
REMARK   58  A    between atoms: _133  and  _134
REMARK   59  A    between atoms: _136  and  _138
REMARK   60  A    between atoms: _138  and  _139
REMARK   61  A    between atoms: _141  and  _143
REMARK   62  A    between atoms: _143  and  _144
REMARK   63  A    between atoms: _143  and  _146
REMARK   64  A    between atoms: _146  and  _147
REMARK   65  A    between atoms: _150  and  _152
REMARK   66  A    between atoms: _152  and  _153
REMARK   67  A    between atoms: _155  and  _157
REMARK   68  A    between atoms: _157  and  _158
REMARK   69  A    between atoms: _160  and  _162
REMARK   70  A    between atoms: _162  and  _163
REMARK   71  A    between atoms: _162  and  _165
REMARK   72  A    between atoms: _165  and  _166
REMARK   73  A    between atoms: _169  and  _171
REMARK   74  A    between atoms: _171  and  _172
REMARK   75  A    between atoms: _171  and  _174
REMARK   76  A    between atoms: _177  and  _179
REMARK   77  A    between atoms: _179  and  _180
REMARK   78  A    between atoms: _179  and  _182
REMARK   79  A    between atoms: _182  and  _183
REMARK   80  A    between atoms: _187  and  _188
REMARK   81  A    between atoms: _193  and  _195
REMARK   82  A    between atoms: _195  and  _196
REMARK   83  A    between atoms: _195  and  _198
REMARK   84  A    between atoms: _198  and  _199
REMARK   85  A    between atoms: _203  and  _204
REMARK   86  A    between atoms: _209  and  _211
REMARK   87  A    between atoms: _211  and  _212
REMARK   88  A    between atoms: _211  and  _214
REMARK   89  A    between atoms: _217  and  _219
REMARK   90  A    between atoms: _219  and  _220
REMARK   91  A    between atoms: _219  and  _222
REMARK   92  A    between atoms: _222  and  _223
REMARK   93  A    between atoms: _228  and  _230
REMARK   94  A    between atoms: _230  and  _231
REMARK   95  A    between atoms: _230  and  _233
REMARK   96  A    between atoms: _233  and  _234
REMARK   97  A    between atoms: _237  and  _239
REMARK   98  A    between atoms: _239  and  _240
REMARK   99  A    between atoms: _239  and  _242
REMARK  100  A    between atoms: _242  and  _243
REMARK  101  A    between atoms: _246  and  _248
REMARK  102  A    between atoms: _248  and  _249
REMARK  103  A    between atoms: _251  and  _253
REMARK  104  A    between atoms: _253  and  _254
REMARK  105  A    between atoms: _253  and  _256
REMARK  106  A    between atoms: _256  and  _257
REMARK  107  A    between atoms: _257  and  _258
REMARK  108  A    between atoms: _258  and  _259
REMARK  109  A    between atoms: _268  and  _270
REMARK  110  A    between atoms: _270  and  _271
REMARK  111  A    between atoms: _270  and  _273
REMARK  112  A    between atoms: _273  and  _274
REMARK  113  A    between atoms: _279  and  _281
REMARK  114  A    between atoms: _281  and  _282
REMARK  115  A    between atoms: _281  and  _284
REMARK  116  A    between atoms: _284  and  _285
REMARK  117  A    between atoms: _285  and  _286
REMARK  118  A    between atoms: _286  and  _287
REMARK  119  A    between atoms: _296  and  _298
REMARK  120  A    between atoms: _298  and  _299
REMARK  121  A    between atoms: _298  and  _301
REMARK  122  A    between atoms: _301  and  _302
REMARK  123  A    between atoms: _305  and  _307
REMARK  124  A    between atoms: _307  and  _308
REMARK  125  A    between atoms: _307  and  _310
REMARK  126  A    between atoms: _310  and  _311
REMARK  127  A    between atoms: _314  and  _316
REMARK  128  A    between atoms: _316  and  _317
REMARK  129  A    between atoms: _316  and  _319
REMARK  130  A    between atoms: _319  and  _320
REMARK  131  A    between atoms: _323  and  _325
REMARK  132  A    between atoms: _325  and  _326
REMARK  133  A    between atoms: _325  and  _328
REMARK  134  A    between atoms: _328  and  _329
REMARK  135  A    between atoms: _332  and  _334
REMARK  136  A    between atoms: _334  and  _335
REMARK  137  A    between atoms: _337  and  _339
REMARK  138  A    between atoms: _339  and  _340
REMARK  139  A    between atoms: _343  and  _345
REMARK  140  A    between atoms: _345  and  _346
REMARK  141  A    between atoms: _345  and  _348
REMARK  142  A    between atoms: _348  and  _349
REMARK  143  A    between atoms: _352  and  _354
REMARK  144  A    between atoms: _354  and  _355
REMARK  145  A    between atoms: _354  and  _357
REMARK  146  A    between atoms: _357  and  _358
REMARK  147  A    between atoms: _361  and  _363
REMARK  148  A    between atoms: _363  and  _364
REMARK  149  A    between atoms: _363  and  _366
REMARK  150  A    between atoms: _366  and  _367
REMARK  151  A    between atoms: _370  and  _372
REMARK  152  A    between atoms: _372  and  _373
REMARK  153  A    between atoms: _372  and  _375
REMARK  154  A    between atoms: _378  and  _380
REMARK  155  A    between atoms: _380  and  _381
REMARK  156  A    between atoms: _380  and  _383
REMARK  157  A    between atoms: _384  and  _385
REMARK  158  A    between atoms: _385  and  _386
REMARK  159  A    between atoms: _386  and  _387
REMARK  160  A    between atoms: _391  and  _393
REMARK  161  A    between atoms: _393  and  _394
REMARK  162  A    between atoms: _393  and  _396
REMARK  163  A    between atoms: _396  and  _397
REMARK  164  A    between atoms: _397  and  _398
REMARK  165  A    between atoms: _400  and  _402
REMARK  166  A    between atoms: _402  and  _403
REMARK  167  A    between atoms: _402  and  _405
REMARK  168  A    between atoms: _405  and  _406
REMARK  169  A    between atoms: _409  and  _411
REMARK  170  A    between atoms: _411  and  _412
REMARK  171  A    between atoms: _414  and  _416
REMARK  172  A    between atoms: _416  and  _417
REMARK  173  A    between atoms: _419  and  _421
REMARK  174  A    between atoms: _421  and  _422
REMARK  175  A    between atoms: _421  and  _424
REMARK  176  A    between atoms: _424  and  _425
REMARK  177  A    between atoms: _428  and  _430
REMARK  178  A    between atoms: _430  and  _431
REMARK  179  A    between atoms: _433  and  _435
REMARK  180  A    between atoms: _435  and  _436
REMARK  181  A    between atoms: _438  and  _440
REMARK  182  A    between atoms: _440  and  _441
REMARK  183  A    between atoms: _440  and  _443
REMARK  184  A    between atoms: _443  and  _444
REMARK  185  A    between atoms: _450  and  _452
REMARK  186  A    between atoms: _452  and  _453
REMARK  187  A    between atoms: _452  and  _455
REMARK  188  A    between atoms: _455  and  _456
REMARK  189  A    between atoms: _459  and  _461
REMARK  190  A    between atoms: _461  and  _462
REMARK  191  A    between atoms: _461  and  _464
REMARK  192  A    between atoms: _467  and  _469
REMARK  193  A    between atoms: _469  and  _470
REMARK  194  A    between atoms: _469  and  _472
REMARK  195  A    between atoms: _472  and  _473
REMARK  196  A    between atoms: _476  and  _478
REMARK  197  A    between atoms: _478  and  _479
REMARK  198  A    between atoms: _478  and  _481
REMARK  199  A    between atoms: _481  and  _482
REMARK  200  A    between atoms: _486  and  _487
REMARK  201  A    between atoms: _492  and  _494
REMARK  202  A    between atoms: _494  and  _495
REMARK  203  A    between atoms: _494  and  _497
REMARK  204  A    between atoms: _500  and  _502
REMARK  205  A    between atoms: _502  and  _503
REMARK  206  A    between atoms: _502  and  _505
REMARK  207  A    between atoms: _505  and  _506
REMARK  208  A    between atoms: _511  and  _513
REMARK  209  A    between atoms: _513  and  _514
REMARK  210  A    between atoms: _513  and  _516
REMARK  211  A    between atoms: _516  and  _517
REMARK  212  A    between atoms: _520  and  _522
REMARK  213  A    between atoms: _522  and  _523
REMARK  214  A    between atoms: _522  and  _525
REMARK  215  A    between atoms: _525  and  _526
REMARK  216  A    between atoms: _529  and  _531
REMARK  217  A    between atoms: _531  and  _532
REMARK  218  A    between atoms: _534  and  _536
REMARK  219  A    between atoms: _536  and  _537
REMARK  220  A    between atoms: _536  and  _539
REMARK  221  A    between atoms: _539  and  _540
REMARK  222  A    between atoms: _540  and  _541
REMARK  223  A    between atoms: _541  and  _542
REMARK  224  A    between atoms: _551  and  _553
REMARK  225  A    between atoms: _553  and  _554
REMARK  226  A    between atoms: _553  and  _556
REMARK  227  A    between atoms: _556  and  _557
REMARK                            x       y       z     vdW  Elec       q    Type
REMARK                         _______ _______ _______ _____ _____    ______ ____
ROOT
ATOM      1  O   HOH     1       6.281  10.740  23.716  0.00  0.00    +0.000 OA
ENDROOT
TORSDOF 0
REMARK  Name = ../refined-set-2016/3a2o/3a2o_pocket.pdb
REMARK  227 active torsions:
REMARK  status: ('A' for Active; 'I' for Inactive)
REMARK    1  A    between atoms: _1  and  _3
REMARK    2  A    between atoms: _3  and  _4
REMARK    3  A    between atoms: _3  and  _6
REMARK    4  A    between atoms: _6  and  _7
REMARK    5  A    between atoms: _7  and  _8
REMARK    6  A    between atoms: _8  and  _9
REMARK    7  A    between atoms: _18  and  _20
REMARK    8  A    between atoms: _20  and  _21
REMARK    9  A    between atoms: _20  and  _23
REMARK   10  A    between atoms: _23  and  _24
REMARK   11  A    between atoms: _27  and  _29
REMARK   12  A    between atoms: _29  and  _30
REMARK   13  A    between atoms: _29  and  _32
REMARK   14  A    between atoms: _32  and  _33
REMARK   15  A    between atoms: _36  and  _38
REMARK   16  A    between atoms: _38  and  _39
REMARK   17  A    between atoms: _38  and  _41
REMARK   18  A    between atoms: _41  and  _42
REMARK   19  A    between atoms: _45  and  _47
REMARK   20  A    between atoms: _47  and  _48
REMARK   21  A    between atoms: _47  and  _50
REMARK   22  A    between atoms: _50  and  _51
REMARK   23  A    between atoms: _54  and  _56
REMARK   24  A    between atoms: _56  and  _57
REMARK   25  A    between atoms: _59  and  _61
REMARK   26  A    between atoms: _61  and  _62
REMARK   27  A    between atoms: _65  and  _67
REMARK   28  A    between atoms: _67  and  _68
REMARK   29  A    between atoms: _67  and  _70
REMARK   30  A    between atoms: _70  and  _71
REMARK   31  A    between atoms: _74  and  _76
REMARK   32  A    between atoms: _76  and  _77
REMARK   33  A    between atoms: _76  and  _79
REMARK   34  A    between atoms: _79  and  _80
REMARK   35  A    between atoms: _83  and  _85
REMARK   36  A    between atoms: _85  and  _86
REMARK   37  A    between atoms: _85  and  _88
REMARK   38  A    between atoms: _88  and  _89
REMARK   39  A    between atoms: _92  and  _94
REMARK   40  A    between atoms: _94  and  _95
REMARK   41  A    between atoms: _94  and  _97
REMARK   42  A    between atoms: _100  and  _102
REMARK   43  A    between atoms: _102  and  _103
REMARK   44  A    between atoms: _102  and  _105
REMARK   45  A    between atoms: _106  and  _107
REMARK   46  A    between atoms: _107  and  _108
REMARK   47  A    between atoms: _108  and  _109
REMARK   48  A    between atoms: _113  and  _115
REMARK   49  A    between atoms: _115  and  _116
REMARK   50  A    between atoms: _115  and  _118
REMARK   51  A    between atoms: _118  and  _119
REMARK   52  A    between atoms: _119  and  _120
REMARK   53  A    between atoms: _122  and  _124
REMARK   54  A    between atoms: _124  and  _125
REMARK   55  A    between atoms: _124  and  _127
REMARK   56  A    between atoms: _127  and  _128
REMARK   57  A    between atoms: _131  and  _133
REMARK   58  A    between atoms: _133  and  _134
REMARK   59  A    between atoms: _136  and  _138
REMARK   60  A    between atoms: _138  and  _139
REMARK   61  A    between atoms: _141  and  _143
REMARK   62  A    between atoms: _143  and  _144
REMARK   63  A    between atoms: _143  and  _146
REMARK   64  A    between atoms: _146  and  _147
REMARK   65  A    between atoms: _150  and  _152
REMARK   66  A    between atoms: _152  and  _153
REMARK   67  A    between atoms: _155  and  _157
REMARK   68  A    between atoms: _157  and  _158
REMARK   69  A    between atoms: _160  and  _162
REMARK   70  A    between atoms: _162  and  _163
REMARK   71  A    between atoms: _162  and  _165
REMARK   72  A    between atoms: _165  and  _166
REMARK   73  A    between atoms: _169  and  _171
REMARK   74  A    between atoms: _171  and  _172
REMARK   75  A    between atoms: _171  and  _174
REMARK   76  A    between atoms: _177  and  _179
REMARK   77  A    between atoms: _179  and  _180
REMARK   78  A    between atoms: _179  and  _182
REMARK   79  A    between atoms: _182  and  _183
REMARK   80  A    between atoms: _187  and  _188
REMARK   81  A    between atoms: _193  and  _195
REMARK   82  A    between atoms: _195  and  _196
REMARK   83  A    between atoms: _195  and  _198
REMARK   84  A    between atoms: _198  and  _199
REMARK   85  A    between atoms: _203  and  _204
REMARK   86  A    between atoms: _209  and  _211
REMARK   87  A    between atoms: _211  and  _212
REMARK   88  A    between atoms: _211  and  _214
REMARK   89  A    between atoms: _217  and  _219
REMARK   90  A    between atoms: _219  and  _220
REMARK   91  A    between atoms: _219  and  _222
REMARK   92  A    between atoms: _222  and  _223
REMARK   93  A    between atoms: _228  and  _230
REMARK   94  A    between atoms: _230  and  _231
REMARK   95  A    between atoms: _230  and  _233
REMARK   96  A    between atoms: _233  and  _234
REMARK   97  A    between atoms: _237  and  _239
REMARK   98  A    between atoms: _239  and  _240
REMARK   99  A    between atoms: _239  and  _242
REMARK  100  A    between atoms: _242  and  _243
REMARK  101  A    between atoms: _246  and  _248
REMARK  102  A    between atoms: _248  and  _249
REMARK  103  A    between atoms: _251  and  _253
REMARK  104  A    between atoms: _253  and  _254
REMARK  105  A    between atoms: _253  and  _256
REMARK  106  A    between atoms: _256  and  _257
REMARK  107  A    between atoms: _257  and  _258
REMARK  108  A    between atoms: _258  and  _259
REMARK  109  A    between atoms: _268  and  _270
REMARK  110  A    between atoms: _270  and  _271
REMARK  111  A    between atoms: _270  and  _273
REMARK  112  A    between atoms: _273  and  _274
REMARK  113  A    between atoms: _279  and  _281
REMARK  114  A    between atoms: _281  and  _282
REMARK  115  A    between atoms: _281  and  _284
REMARK  116  A    between atoms: _284  and  _285
REMARK  117  A    between atoms: _285  and  _286
REMARK  118  A    between atoms: _286  and  _287
REMARK  119  A    between atoms: _296  and  _298
REMARK  120  A    between atoms: _298  and  _299
REMARK  121  A    between atoms: _298  and  _301
REMARK  122  A    between atoms: _301  and  _302
REMARK  123  A    between atoms: _305  and  _307
REMARK  124  A    between atoms: _307  and  _308
REMARK  125  A    between atoms: _307  and  _310
REMARK  126  A    between atoms: _310  and  _311
REMARK  127  A    between atoms: _314  and  _316
REMARK  128  A    between atoms: _316  and  _317
REMARK  129  A    between atoms: _316  and  _319
REMARK  130  A    between atoms: _319  and  _320
REMARK  131  A    between atoms: _323  and  _325
REMARK  132  A    between atoms: _325  and  _326
REMARK  133  A    between atoms: _325  and  _328
REMARK  134  A    between atoms: _328  and  _329
REMARK  135  A    between atoms: _332  and  _334
REMARK  136  A    between atoms: _334  and  _335
REMARK  137  A    between atoms: _337  and  _339
REMARK  138  A    between atoms: _339  and  _340
REMARK  139  A    between atoms: _343  and  _345
REMARK  140  A    between atoms: _345  and  _346
REMARK  141  A    between atoms: _345  and  _348
REMARK  142  A    between atoms: _348  and  _349
REMARK  143  A    between atoms: _352  and  _354
REMARK  144  A    between atoms: _354  and  _355
REMARK  145  A    between atoms: _354  and  _357
REMARK  146  A    between atoms: _357  and  _358
REMARK  147  A    between atoms: _361  and  _363
REMARK  148  A    between atoms: _363  and  _364
REMARK  149  A    between atoms: _363  and  _366
REMARK  150  A    between atoms: _366  and  _367
REMARK  151  A    between atoms: _370  and  _372
REMARK  152  A    between atoms: _372  and  _373
REMARK  153  A    between atoms: _372  and  _375
REMARK  154  A    between atoms: _378  and  _380
REMARK  155  A    between atoms: _380  and  _381
REMARK  156  A    between atoms: _380  and  _383
REMARK  157  A    between atoms: _384  and  _385
REMARK  158  A    between atoms: _385  and  _386
REMARK  159  A    between atoms: _386  and  _387
REMARK  160  A    between atoms: _391  and  _393
REMARK  161  A    between atoms: _393  and  _394
REMARK  162  A    between atoms: _393  and  _396
REMARK  163  A    between atoms: _396  and  _397
REMARK  164  A    between atoms: _397  and  _398
REMARK  165  A    between atoms: _400  and  _402
REMARK  166  A    between atoms: _402  and  _403
REMARK  167  A    between atoms: _402  and  _405
REMARK  168  A    between atoms: _405  and  _406
REMARK  169  A    between atoms: _409  and  _411
REMARK  170  A    between atoms: _411  and  _412
REMARK  171  A    between atoms: _414  and  _416
REMARK  172  A    between atoms: _416  and  _417
REMARK  173  A    between atoms: _419  and  _421
REMARK  174  A    between atoms: _421  and  _422
REMARK  175  A    between atoms: _421  and  _424
REMARK  176  A    between atoms: _424  and  _425
REMARK  177  A    between atoms: _428  and  _430
REMARK  178  A    between atoms: _430  and  _431
REMARK  179  A    between atoms: _433  and  _435
REMARK  180  A    between atoms: _435  and  _436
REMARK  181  A    between atoms: _438  and  _440
REMARK  182  A    between atoms: _440  and  _441
REMARK  183  A    between atoms: _440  and  _443
REMARK  184  A    between atoms: _443  and  _444
REMARK  185  A    between atoms: _450  and  _452
REMARK  186  A    between atoms: _452  and  _453
REMARK  187  A    between atoms: _452  and  _455
REMARK  188  A    between atoms: _455  and  _456
REMARK  189  A    between atoms: _459  and  _461
REMARK  190  A    between atoms: _461  and  _462
REMARK  191  A    between atoms: _461  and  _464
REMARK  192  A    between atoms: _467  and  _469
REMARK  193  A    between atoms: _469  and  _470
REMARK  194  A    between atoms: _469  and  _472
REMARK  195  A    between atoms: _472  and  _473
REMARK  196  A    between atoms: _476  and  _478
REMARK  197  A    between atoms: _478  and  _479
REMARK  198  A    between atoms: _478  and  _481
REMARK  199  A    between atoms: _481  and  _482
REMARK  200  A    between atoms: _486  and  _487
REMARK  201  A    between atoms: _492  and  _494
REMARK  202  A    between atoms: _494  and  _495
REMARK  203  A    between atoms: _494  and  _497
REMARK  204  A    between atoms: _500  and  _502
REMARK  205  A    between atoms: _502  and  _503
REMARK  206  A    between atoms: _502  and  _505
REMARK  207  A    between atoms: _505  and  _506
REMARK  208  A    between atoms: _511  and  _513
REMARK  209  A    between atoms: _513  and  _514
REMARK  210  A    between atoms: _513  and  _516
REMARK  211  A    between atoms: _516  and  _517
REMARK  212  A    between atoms: _520  and  _522
REMARK  213  A    between atoms: _522  and  _523
REMARK  214  A    between atoms: _522  and  _525
REMARK  215  A    between atoms: _525  and  _526
REMARK  216  A    between atoms: _529  and  _531
REMARK  217  A    between atoms: _531  and  _532
REMARK  218  A    between atoms: _534  and  _536
REMARK  219  A    between atoms: _536  and  _537
REMARK  220  A    between atoms: _536  and  _539
REMARK  221  A    between atoms: _539  and  _540
REMARK  222  A    between atoms: _540  and  _541
REMARK  223  A    between atoms: _541  and  _542
REMARK  224  A    between atoms: _551  and  _553
REMARK  225  A    between atoms: _553  and  _554
REMARK  226  A    between atoms: _553  and  _556
REMARK  227  A    between atoms: _556  and  _557
REMARK                            x       y       z     vdW  Elec       q    Type
REMARK                         _______ _______ _______ _____ _____    ______ ____
ROOT
ATOM      1  O   HOH     1      12.434  15.215   9.400  0.00  0.00    +0.000 OA
ENDROOT
TORSDOF 0
REMARK  Name = ../refined-set-2016/3a2o/3a2o_pocket.pdb
REMARK  227 active torsions:
REMARK  status: ('A' for Active; 'I' for Inactive)
REMARK    1  A    between atoms: _1  and  _3
REMARK    2  A    between atoms: _3  and  _4
REMARK    3  A    between atoms: _3  and  _6
REMARK    4  A    between atoms: _6  and  _7
REMARK    5  A    between atoms: _7  and  _8
REMARK    6  A    between atoms: _8  and  _9
REMARK    7  A    between atoms: _18  and  _20
REMARK    8  A    between atoms: _20  and  _21
REMARK    9  A    between atoms: _20  and  _23
REMARK   10  A    between atoms: _23  and  _24
REMARK   11  A    between atoms: _27  and  _29
REMARK   12  A    between atoms: _29  and  _30
REMARK   13  A    between atoms: _29  and  _32
REMARK   14  A    between atoms: _32  and  _33
REMARK   15  A    between atoms: _36  and  _38
REMARK   16  A    between atoms: _38  and  _39
REMARK   17  A    between atoms: _38  and  _41
REMARK   18  A    between atoms: _41  and  _42
REMARK   19  A    between atoms: _45  and  _47
REMARK   20  A    between atoms: _47  and  _48
REMARK   21  A    between atoms: _47  and  _50
REMARK   22  A    between atoms: _50  and  _51
REMARK   23  A    between atoms: _54  and  _56
REMARK   24  A    between atoms: _56  and  _57
REMARK   25  A    between atoms: _59  and  _61
REMARK   26  A    between atoms: _61  and  _62
REMARK   27  A    between atoms: _65  and  _67
REMARK   28  A    between atoms: _67  and  _68
REMARK   29  A    between atoms: _67  and  _70
REMARK   30  A    between atoms: _70  and  _71
REMARK   31  A    between atoms: _74  and  _76
REMARK   32  A    between atoms: _76  and  _77
REMARK   33  A    between atoms: _76  and  _79
REMARK   34  A    between atoms: _79  and  _80
REMARK   35  A    between atoms: _83  and  _85
REMARK   36  A    between atoms: _85  and  _86
REMARK   37  A    between atoms: _85  and  _88
REMARK   38  A    between atoms: _88  and  _89
REMARK   39  A    between atoms: _92  and  _94
REMARK   40  A    between atoms: _94  and  _95
REMARK   41  A    between atoms: _94  and  _97
REMARK   42  A    between atoms: _100  and  _102
REMARK   43  A    between atoms: _102  and  _103
REMARK   44  A    between atoms: _102  and  _105
REMARK   45  A    between atoms: _106  and  _107
REMARK   46  A    between atoms: _107  and  _108
REMARK   47  A    between atoms: _108  and  _109
REMARK   48  A    between atoms: _113  and  _115
REMARK   49  A    between atoms: _115  and  _116
REMARK   50  A    between atoms: _115  and  _118
REMARK   51  A    between atoms: _118  and  _119
REMARK   52  A    between atoms: _119  and  _120
REMARK   53  A    between atoms: _122  and  _124
REMARK   54  A    between atoms: _124  and  _125
REMARK   55  A    between atoms: _124  and  _127
REMARK   56  A    between atoms: _127  and  _128
REMARK   57  A    between atoms: _131  and  _133
REMARK   58  A    between atoms: _133  and  _134
REMARK   59  A    between atoms: _136  and  _138
REMARK   60  A    between atoms: _138  and  _139
REMARK   61  A    between atoms: _141  and  _143
REMARK   62  A    between atoms: _143  and  _144
REMARK   63  A    between atoms: _143  and  _146
REMARK   64  A    between atoms: _146  and  _147
REMARK   65  A    between atoms: _150  and  _152
REMARK   66  A    between atoms: _152  and  _153
REMARK   67  A    between atoms: _155  and  _157
REMARK   68  A    between atoms: _157  and  _158
REMARK   69  A    between atoms: _160  and  _162
REMARK   70  A    between atoms: _162  and  _163
REMARK   71  A    between atoms: _162  and  _165
REMARK   72  A    between atoms: _165  and  _166
REMARK   73  A    between atoms: _169  and  _171
REMARK   74  A    between atoms: _171  and  _172
REMARK   75  A    between atoms: _171  and  _174
REMARK   76  A    between atoms: _177  and  _179
REMARK   77  A    between atoms: _179  and  _180
REMARK   78  A    between atoms: _179  and  _182
REMARK   79  A    between atoms: _182  and  _183
REMARK   80  A    between atoms: _187  and  _188
REMARK   81  A    between atoms: _193  and  _195
REMARK   82  A    between atoms: _195  and  _196
REMARK   83  A    between atoms: _195  and  _198
REMARK   84  A    between atoms: _198  and  _199
REMARK   85  A    between atoms: _203  and  _204
REMARK   86  A    between atoms: _209  and  _211
REMARK   87  A    between atoms: _211  and  _212
REMARK   88  A    between atoms: _211  and  _214
REMARK   89  A    between atoms: _217  and  _219
REMARK   90  A    between atoms: _219  and  _220
REMARK   91  A    between atoms: _219  and  _222
REMARK   92  A    between atoms: _222  and  _223
REMARK   93  A    between atoms: _228  and  _230
REMARK   94  A    between atoms: _230  and  _231
REMARK   95  A    between atoms: _230  and  _233
REMARK   96  A    between atoms: _233  and  _234
REMARK   97  A    between atoms: _237  and  _239
REMARK   98  A    between atoms: _239  and  _240
REMARK   99  A    between atoms: _239  and  _242
REMARK  100  A    between atoms: _242  and  _243
REMARK  101  A    between atoms: _246  and  _248
REMARK  102  A    between atoms: _248  and  _249
REMARK  103  A    between atoms: _251  and  _253
REMARK  104  A    between atoms: _253  and  _254
REMARK  105  A    between atoms: _253  and  _256
REMARK  106  A    between atoms: _256  and  _257
REMARK  107  A    between atoms: _257  and  _258
REMARK  108  A    between atoms: _258  and  _259
REMARK  109  A    between atoms: _268  and  _270
REMARK  110  A    between atoms: _270  and  _271
REMARK  111  A    between atoms: _270  and  _273
REMARK  112  A    between atoms: _273  and  _274
REMARK  113  A    between atoms: _279  and  _281
REMARK  114  A    between atoms: _281  and  _282
REMARK  115  A    between atoms: _281  and  _284
REMARK  116  A    between atoms: _284  and  _285
REMARK  117  A    between atoms: _285  and  _286
REMARK  118  A    between atoms: _286  and  _287
REMARK  119  A    between atoms: _296  and  _298
REMARK  120  A    between atoms: _298  and  _299
REMARK  121  A    between atoms: _298  and  _301
REMARK  122  A    between atoms: _301  and  _302
REMARK  123  A    between atoms: _305  and  _307
REMARK  124  A    between atoms: _307  and  _308
REMARK  125  A    between atoms: _307  and  _310
REMARK  126  A    between atoms: _310  and  _311
REMARK  127  A    between atoms: _314  and  _316
REMARK  128  A    between atoms: _316  and  _317
REMARK  129  A    between atoms: _316  and  _319
REMARK  130  A    between atoms: _319  and  _320
REMARK  131  A    between atoms: _323  and  _325
REMARK  132  A    between atoms: _325  and  _326
REMARK  133  A    between atoms: _325  and  _328
REMARK  134  A    between atoms: _328  and  _329
REMARK  135  A    between atoms: _332  and  _334
REMARK  136  A    between atoms: _334  and  _335
REMARK  137  A    between atoms: _337  and  _339
REMARK  138  A    between atoms: _339  and  _340
REMARK  139  A    between atoms: _343  and  _345
REMARK  140  A    between atoms: _345  and  _346
REMARK  141  A    between atoms: _345  and  _348
REMARK  142  A    between atoms: _348  and  _349
REMARK  143  A    between atoms: _352  and  _354
REMARK  144  A    between atoms: _354  and  _355
REMARK  145  A    between atoms: _354  and  _357
REMARK  146  A    between atoms: _357  and  _358
REMARK  147  A    between atoms: _361  and  _363
REMARK  148  A    between atoms: _363  and  _364
REMARK  149  A    between atoms: _363  and  _366
REMARK  150  A    between atoms: _366  and  _367
REMARK  151  A    between atoms: _370  and  _372
REMARK  152  A    between atoms: _372  and  _373
REMARK  153  A    between atoms: _372  and  _375
REMARK  154  A    between atoms: _378  and  _380
REMARK  155  A    between atoms: _380  and  _381
REMARK  156  A    between atoms: _380  and  _383
REMARK  157  A    between atoms: _384  and  _385
REMARK  158  A    between atoms: _385  and  _386
REMARK  159  A    between atoms: _386  and  _387
REMARK  160  A    between atoms: _391  and  _393
REMARK  161  A    between atoms: _393  and  _394
REMARK  162  A    between atoms: _393  and  _396
REMARK  163  A    between atoms: _396  and  _397
REMARK  164  A    between atoms: _397  and  _398
REMARK  165  A    between atoms: _400  and  _402
REMARK  166  A    between atoms: _402  and  _403
REMARK  167  A    between atoms: _402  and  _405
REMARK  168  A    between atoms: _405  and  _406
REMARK  169  A    between atoms: _409  and  _411
REMARK  170  A    between atoms: _411  and  _412
REMARK  171  A    between atoms: _414  and  _416
REMARK  172  A    between atoms: _416  and  _417
REMARK  173  A    between atoms: _419  and  _421
REMARK  174  A    between atoms: _421  and  _422
REMARK  175  A    between atoms: _421  and  _424
REMARK  176  A    between atoms: _424  and  _425
REMARK  177  A    between atoms: _428  and  _430
REMARK  178  A    between atoms: _430  and  _431
REMARK  179  A    between atoms: _433  and  _435
REMARK  180  A    between atoms: _435  and  _436
REMARK  181  A    between atoms: _438  and  _440
REMARK  182  A    between atoms: _440  and  _441
REMARK  183  A    between atoms: _440  and  _443
REMARK  184  A    between atoms: _443  and  _444
REMARK  185  A    between atoms: _450  and  _452
REMARK  186  A    between atoms: _452  and  _453
REMARK  187  A    between atoms: _452  and  _455
REMARK  188  A    between atoms: _455  and  _456
REMARK  189  A    between atoms: _459  and  _461
REMARK  190  A    between atoms: _461  and  _462
REMARK  191  A    between atoms: _461  and  _464
REMARK  192  A    between atoms: _467  and  _469
REMARK  193  A    between atoms: _469  and  _470
REMARK  194  A    between atoms: _469  and  _472
REMARK  195  A    between atoms: _472  and  _473
REMARK  196  A    between atoms: _476  and  _478
REMARK  197  A    between atoms: _478  and  _479
REMARK  198  A    between atoms: _478  and  _481
REMARK  199  A    between atoms: _481  and  _482
REMARK  200  A    between atoms: _486  and  _487
REMARK  201  A    between atoms: _492  and  _494
REMARK  202  A    between atoms: _494  and  _495
REMARK  203  A    between atoms: _494  and  _497
REMARK  204  A    between atoms: _500  and  _502
REMARK  205  A    between atoms: _502  and  _503
REMARK  206  A    between atoms: _502  and  _505
REMARK  207  A    between atoms: _505  and  _506
REMARK  208  A    between atoms: _511  and  _513
REMARK  209  A    between atoms: _513  and  _514
REMARK  210  A    between atoms: _513  and  _516
REMARK  211  A    between atoms: _516  and  _517
REMARK  212  A    between atoms: _520  and  _522
REMARK  213  A    between atoms: _522  and  _523
REMARK  214  A    between atoms: _522  and  _525
REMARK  215  A    between atoms: _525  and  _526
REMARK  216  A    between atoms: _529  and  _531
REMARK  217  A    between atoms: _531  and  _532
REMARK  218  A    between atoms: _534  and  _536
REMARK  219  A    between atoms: _536  and  _537
REMARK  220  A    between atoms: _536  and  _539
REMARK  221  A    between atoms: _539  and  _540
REMARK  222  A    between atoms: _540  and  _541
REMARK  223  A    between atoms: _541  and  _542
REMARK  224  A    between atoms: _551  and  _553
REMARK  225  A    between atoms: _553  and  _554
REMARK  226  A    between atoms: _553  and  _556
REMARK  227  A    between atoms: _556  and  _557
REMARK                            x       y       z     vdW  Elec       q    Type
REMARK                         _______ _______ _______ _____ _____    ______ ____
ROOT
ATOM      1  O   HOH     1       5.691  13.335  19.532  0.00  0.00    +0.000 OA
ENDROOT
TORSDOF 0
REMARK  Name = ../refined-set-2016/3a2o/3a2o_pocket.pdb
REMARK  227 active torsions:
REMARK  status: ('A' for Active; 'I' for Inactive)
REMARK    1  A    between atoms: _1  and  _3
REMARK    2  A    between atoms: _3  and  _4
REMARK    3  A    between atoms: _3  and  _6
REMARK    4  A    between atoms: _6  and  _7
REMARK    5  A    between atoms: _7  and  _8
REMARK    6  A    between atoms: _8  and  _9
REMARK    7  A    between atoms: _18  and  _20
REMARK    8  A    between atoms: _20  and  _21
REMARK    9  A    between atoms: _20  and  _23
REMARK   10  A    between atoms: _23  and  _24
REMARK   11  A    between atoms: _27  and  _29
REMARK   12  A    between atoms: _29  and  _30
REMARK   13  A    between atoms: _29  and  _32
REMARK   14  A    between atoms: _32  and  _33
REMARK   15  A    between atoms: _36  and  _38
REMARK   16  A    between atoms: _38  and  _39
REMARK   17  A    between atoms: _38  and  _41
REMARK   18  A    between atoms: _41  and  _42
REMARK   19  A    between atoms: _45  and  _47
REMARK   20  A    between atoms: _47  and  _48
REMARK   21  A    between atoms: _47  and  _50
REMARK   22  A    between atoms: _50  and  _51
REMARK   23  A    between atoms: _54  and  _56
REMARK   24  A    between atoms: _56  and  _57
REMARK   25  A    between atoms: _59  and  _61
REMARK   26  A    between atoms: _61  and  _62
REMARK   27  A    between atoms: _65  and  _67
REMARK   28  A    between atoms: _67  and  _68
REMARK   29  A    between atoms: _67  and  _70
REMARK   30  A    between atoms: _70  and  _71
REMARK   31  A    between atoms: _74  and  _76
REMARK   32  A    between atoms: _76  and  _77
REMARK   33  A    between atoms: _76  and  _79
REMARK   34  A    between atoms: _79  and  _80
REMARK   35  A    between atoms: _83  and  _85
REMARK   36  A    between atoms: _85  and  _86
REMARK   37  A    between atoms: _85  and  _88
REMARK   38  A    between atoms: _88  and  _89
REMARK   39  A    between atoms: _92  and  _94
REMARK   40  A    between atoms: _94  and  _95
REMARK   41  A    between atoms: _94  and  _97
REMARK   42  A    between atoms: _100  and  _102
REMARK   43  A    between atoms: _102  and  _103
REMARK   44  A    between atoms: _102  and  _105
REMARK   45  A    between atoms: _106  and  _107
REMARK   46  A    between atoms: _107  and  _108
REMARK   47  A    between atoms: _108  and  _109
REMARK   48  A    between atoms: _113  and  _115
REMARK   49  A    between atoms: _115  and  _116
REMARK   50  A    between atoms: _115  and  _118
REMARK   51  A    between atoms: _118  and  _119
REMARK   52  A    between atoms: _119  and  _120
REMARK   53  A    between atoms: _122  and  _124
REMARK   54  A    between atoms: _124  and  _125
REMARK   55  A    between atoms: _124  and  _127
REMARK   56  A    between atoms: _127  and  _128
REMARK   57  A    between atoms: _131  and  _133
REMARK   58  A    between atoms: _133  and  _134
REMARK   59  A    between atoms: _136  and  _138
REMARK   60  A    between atoms: _138  and  _139
REMARK   61  A    between atoms: _141  and  _143
REMARK   62  A    between atoms: _143  and  _144
REMARK   63  A    between atoms: _143  and  _146
REMARK   64  A    between atoms: _146  and  _147
REMARK   65  A    between atoms: _150  and  _152
REMARK   66  A    between atoms: _152  and  _153
REMARK   67  A    between atoms: _155  and  _157
REMARK   68  A    between atoms: _157  and  _158
REMARK   69  A    between atoms: _160  and  _162
REMARK   70  A    between atoms: _162  and  _163
REMARK   71  A    between atoms: _162  and  _165
REMARK   72  A    between atoms: _165  and  _166
REMARK   73  A    between atoms: _169  and  _171
REMARK   74  A    between atoms: _171  and  _172
REMARK   75  A    between atoms: _171  and  _174
REMARK   76  A    between atoms: _177  and  _179
REMARK   77  A    between atoms: _179  and  _180
REMARK   78  A    between atoms: _179  and  _182
REMARK   79  A    between atoms: _182  and  _183
REMARK   80  A    between atoms: _187  and  _188
REMARK   81  A    between atoms: _193  and  _195
REMARK   82  A    between atoms: _195  and  _196
REMARK   83  A    between atoms: _195  and  _198
REMARK   84  A    between atoms: _198  and  _199
REMARK   85  A    between atoms: _203  and  _204
REMARK   86  A    between atoms: _209  and  _211
REMARK   87  A    between atoms: _211  and  _212
REMARK   88  A    between atoms: _211  and  _214
REMARK   89  A    between atoms: _217  and  _219
REMARK   90  A    between atoms: _219  and  _220
REMARK   91  A    between atoms: _219  and  _222
REMARK   92  A    between atoms: _222  and  _223
REMARK   93  A    between atoms: _228  and  _230
REMARK   94  A    between atoms: _230  and  _231
REMARK   95  A    between atoms: _230  and  _233
REMARK   96  A    between atoms: _233  and  _234
REMARK   97  A    between atoms: _237  and  _239
REMARK   98  A    between atoms: _239  and  _240
REMARK   99  A    between atoms: _239  and  _242
REMARK  100  A    between atoms: _242  and  _243
REMARK  101  A    between atoms: _246  and  _248
REMARK  102  A    between atoms: _248  and  _249
REMARK  103  A    between atoms: _251  and  _253
REMARK  104  A    between atoms: _253  and  _254
REMARK  105  A    between atoms: _253  and  _256
REMARK  106  A    between atoms: _256  and  _257
REMARK  107  A    between atoms: _257  and  _258
REMARK  108  A    between atoms: _258  and  _259
REMARK  109  A    between atoms: _268  and  _270
REMARK  110  A    between atoms: _270  and  _271
REMARK  111  A    between atoms: _270  and  _273
REMARK  112  A    between atoms: _273  and  _274
REMARK  113  A    between atoms: _279  and  _281
REMARK  114  A    between atoms: _281  and  _282
REMARK  115  A    between atoms: _281  and  _284
REMARK  116  A    between atoms: _284  and  _285
REMARK  117  A    between atoms: _285  and  _286
REMARK  118  A    between atoms: _286  and  _287
REMARK  119  A    between atoms: _296  and  _298
REMARK  120  A    between atoms: _298  and  _299
REMARK  121  A    between atoms: _298  and  _301
REMARK  122  A    between atoms: _301  and  _302
REMARK  123  A    between atoms: _305  and  _307
REMARK  124  A    between atoms: _307  and  _308
REMARK  125  A    between atoms: _307  and  _310
REMARK  126  A    between atoms: _310  and  _311
REMARK  127  A    between atoms: _314  and  _316
REMARK  128  A    between atoms: _316  and  _317
REMARK  129  A    between atoms: _316  and  _319
REMARK  130  A    between atoms: _319  and  _320
REMARK  131  A    between atoms: _323  and  _325
REMARK  132  A    between atoms: _325  and  _326
REMARK  133  A    between atoms: _325  and  _328
REMARK  134  A    between atoms: _328  and  _329
REMARK  135  A    between atoms: _332  and  _334
REMARK  136  A    between atoms: _334  and  _335
REMARK  137  A    between atoms: _337  and  _339
REMARK  138  A    between atoms: _339  and  _340
REMARK  139  A    between atoms: _343  and  _345
REMARK  140  A    between atoms: _345  and  _346
REMARK  141  A    between atoms: _345  and  _348
REMARK  142  A    between atoms: _348  and  _349
REMARK  143  A    between atoms: _352  and  _354
REMARK  144  A    between atoms: _354  and  _355
REMARK  145  A    between atoms: _354  and  _357
REMARK  146  A    between atoms: _357  and  _358
REMARK  147  A    between atoms: _361  and  _363
REMARK  148  A    between atoms: _363  and  _364
REMARK  149  A    between atoms: _363  and  _366
REMARK  150  A    between atoms: _366  and  _367
REMARK  151  A    between atoms: _370  and  _372
REMARK  152  A    between atoms: _372  and  _373
REMARK  153  A    between atoms: _372  and  _375
REMARK  154  A    between atoms: _378  and  _380
REMARK  155  A    between atoms: _380  and  _381
REMARK  156  A    between atoms: _380  and  _383
REMARK  157  A    between atoms: _384  and  _385
REMARK  158  A    between atoms: _385  and  _386
REMARK  159  A    between atoms: _386  and  _387
REMARK  160  A    between atoms: _391  and  _393
REMARK  161  A    between atoms: _393  and  _394
REMARK  162  A    between atoms: _393  and  _396
REMARK  163  A    between atoms: _396  and  _397
REMARK  164  A    between atoms: _397  and  _398
REMARK  165  A    between atoms: _400  and  _402
REMARK  166  A    between atoms: _402  and  _403
REMARK  167  A    between atoms: _402  and  _405
REMARK  168  A    between atoms: _405  and  _406
REMARK  169  A    between atoms: _409  and  _411
REMARK  170  A    between atoms: _411  and  _412
REMARK  171  A    between atoms: _414  and  _416
REMARK  172  A    between atoms: _416  and  _417
REMARK  173  A    between atoms: _419  and  _421
REMARK  174  A    between atoms: _421  and  _422
REMARK  175  A    between atoms: _421  and  _424
REMARK  176  A    between atoms: _424  and  _425
REMARK  177  A    between atoms: _428  and  _430
REMARK  178  A    between atoms: _430  and  _431
REMARK  179  A    between atoms: _433  and  _435
REMARK  180  A    between atoms: _435  and  _436
REMARK  181  A    between atoms: _438  and  _440
REMARK  182  A    between atoms: _440  and  _441
REMARK  183  A    between atoms: _440  and  _443
REMARK  184  A    between atoms: _443  and  _444
REMARK  185  A    between atoms: _450  and  _452
REMARK  186  A    between atoms: _452  and  _453
REMARK  187  A    between atoms: _452  and  _455
REMARK  188  A    between atoms: _455  and  _456
REMARK  189  A    between atoms: _459  and  _461
REMARK  190  A    between atoms: _461  and  _462
REMARK  191  A    between atoms: _461  and  _464
REMARK  192  A    between atoms: _467  and  _469
REMARK  193  A    between atoms: _469  and  _470
REMARK  194  A    between atoms: _469  and  _472
REMARK  195  A    between atoms: _472  and  _473
REMARK  196  A    between atoms: _476  and  _478
REMARK  197  A    between atoms: _478  and  _479
REMARK  198  A    between atoms: _478  and  _481
REMARK  199  A    between atoms: _481  and  _482
REMARK  200  A    between atoms: _486  and  _487
REMARK  201  A    between atoms: _492  and  _494
REMARK  202  A    between atoms: _494  and  _495
REMARK  203  A    between atoms: _494  and  _497
REMARK  204  A    between atoms: _500  and  _502
REMARK  205  A    between atoms: _502  and  _503
REMARK  206  A    between atoms: _502  and  _505
REMARK  207  A    between atoms: _505  and  _506
REMARK  208  A    between atoms: _511  and  _513
REMARK  209  A    between atoms: _513  and  _514
REMARK  210  A    between atoms: _513  and  _516
REMARK  211  A    between atoms: _516  and  _517
REMARK  212  A    between atoms: _520  and  _522
REMARK  213  A    between atoms: _522  and  _523
REMARK  214  A    between atoms: _522  and  _525
REMARK  215  A    between atoms: _525  and  _526
REMARK  216  A    between atoms: _529  and  _531
REMARK  217  A    between atoms: _531  and  _532
REMARK  218  A    between atoms: _534  and  _536
REMARK  219  A    between atoms: _536  and  _537
REMARK  220  A    between atoms: _536  and  _539
REMARK  221  A    between atoms: _539  and  _540
REMARK  222  A    between atoms: _540  and  _541
REMARK  223  A    between atoms: _541  and  _542
REMARK  224  A    between atoms: _551  and  _553
REMARK  225  A    between atoms: _553  and  _554
REMARK  226  A    between atoms: _553  and  _556
REMARK  227  A    between atoms: _556  and  _557
REMARK                            x       y       z     vdW  Elec       q    Type
REMARK                         _______ _______ _______ _____ _____    ______ ____
ROOT
ATOM      1  O   HOH     1       7.369   8.256  18.966  0.00  0.00    +0.000 OA
ENDROOT
TORSDOF 0
REMARK  Name = ../refined-set-2016/3a2o/3a2o_pocket.pdb
REMARK  227 active torsions:
REMARK  status: ('A' for Active; 'I' for Inactive)
REMARK    1  A    between atoms: _1  and  _3
REMARK    2  A    between atoms: _3  and  _4
REMARK    3  A    between atoms: _3  and  _6
REMARK    4  A    between atoms: _6  and  _7
REMARK    5  A    between atoms: _7  and  _8
REMARK    6  A    between atoms: _8  and  _9
REMARK    7  A    between atoms: _18  and  _20
REMARK    8  A    between atoms: _20  and  _21
REMARK    9  A    between atoms: _20  and  _23
REMARK   10  A    between atoms: _23  and  _24
REMARK   11  A    between atoms: _27  and  _29
REMARK   12  A    between atoms: _29  and  _30
REMARK   13  A    between atoms: _29  and  _32
REMARK   14  A    between atoms: _32  and  _33
REMARK   15  A    between atoms: _36  and  _38
REMARK   16  A    between atoms: _38  and  _39
REMARK   17  A    between atoms: _38  and  _41
REMARK   18  A    between atoms: _41  and  _42
REMARK   19  A    between atoms: _45  and  _47
REMARK   20  A    between atoms: _47  and  _48
REMARK   21  A    between atoms: _47  and  _50
REMARK   22  A    between atoms: _50  and  _51
REMARK   23  A    between atoms: _54  and  _56
REMARK   24  A    between atoms: _56  and  _57
REMARK   25  A    between atoms: _59  and  _61
REMARK   26  A    between atoms: _61  and  _62
REMARK   27  A    between atoms: _65  and  _67
REMARK   28  A    between atoms: _67  and  _68
REMARK   29  A    between atoms: _67  and  _70
REMARK   30  A    between atoms: _70  and  _71
REMARK   31  A    between atoms: _74  and  _76
REMARK   32  A    between atoms: _76  and  _77
REMARK   33  A    between atoms: _76  and  _79
REMARK   34  A    between atoms: _79  and  _80
REMARK   35  A    between atoms: _83  and  _85
REMARK   36  A    between atoms: _85  and  _86
REMARK   37  A    between atoms: _85  and  _88
REMARK   38  A    between atoms: _88  and  _89
REMARK   39  A    between atoms: _92  and  _94
REMARK   40  A    between atoms: _94  and  _95
REMARK   41  A    between atoms: _94  and  _97
REMARK   42  A    between atoms: _100  and  _102
REMARK   43  A    between atoms: _102  and  _103
REMARK   44  A    between atoms: _102  and  _105
REMARK   45  A    between atoms: _106  and  _107
REMARK   46  A    between atoms: _107  and  _108
REMARK   47  A    between atoms: _108  and  _109
REMARK   48  A    between atoms: _113  and  _115
REMARK   49  A    between atoms: _115  and  _116
REMARK   50  A    between atoms: _115  and  _118
REMARK   51  A    between atoms: _118  and  _119
REMARK   52  A    between atoms: _119  and  _120
REMARK   53  A    between atoms: _122  and  _124
REMARK   54  A    between atoms: _124  and  _125
REMARK   55  A    between atoms: _124  and  _127
REMARK   56  A    between atoms: _127  and  _128
REMARK   57  A    between atoms: _131  and  _133
REMARK   58  A    between atoms: _133  and  _134
REMARK   59  A    between atoms: _136  and  _138
REMARK   60  A    between atoms: _138  and  _139
REMARK   61  A    between atoms: _141  and  _143
REMARK   62  A    between atoms: _143  and  _144
REMARK   63  A    between atoms: _143  and  _146
REMARK   64  A    between atoms: _146  and  _147
REMARK   65  A    between atoms: _150  and  _152
REMARK   66  A    between atoms: _152  and  _153
REMARK   67  A    between atoms: _155  and  _157
REMARK   68  A    between atoms: _157  and  _158
REMARK   69  A    between atoms: _160  and  _162
REMARK   70  A    between atoms: _162  and  _163
REMARK   71  A    between atoms: _162  and  _165
REMARK   72  A    between atoms: _165  and  _166
REMARK   73  A    between atoms: _169  and  _171
REMARK   74  A    between atoms: _171  and  _172
REMARK   75  A    between atoms: _171  and  _174
REMARK   76  A    between atoms: _177  and  _179
REMARK   77  A    between atoms: _179  and  _180
REMARK   78  A    between atoms: _179  and  _182
REMARK   79  A    between atoms: _182  and  _183
REMARK   80  A    between atoms: _187  and  _188
REMARK   81  A    between atoms: _193  and  _195
REMARK   82  A    between atoms: _195  and  _196
REMARK   83  A    between atoms: _195  and  _198
REMARK   84  A    between atoms: _198  and  _199
REMARK   85  A    between atoms: _203  and  _204
REMARK   86  A    between atoms: _209  and  _211
REMARK   87  A    between atoms: _211  and  _212
REMARK   88  A    between atoms: _211  and  _214
REMARK   89  A    between atoms: _217  and  _219
REMARK   90  A    between atoms: _219  and  _220
REMARK   91  A    between atoms: _219  and  _222
REMARK   92  A    between atoms: _222  and  _223
REMARK   93  A    between atoms: _228  and  _230
REMARK   94  A    between atoms: _230  and  _231
REMARK   95  A    between atoms: _230  and  _233
REMARK   96  A    between atoms: _233  and  _234
REMARK   97  A    between atoms: _237  and  _239
REMARK   98  A    between atoms: _239  and  _240
REMARK   99  A    between atoms: _239  and  _242
REMARK  100  A    between atoms: _242  and  _243
REMARK  101  A    between atoms: _246  and  _248
REMARK  102  A    between atoms: _248  and  _249
REMARK  103  A    between atoms: _251  and  _253
REMARK  104  A    between atoms: _253  and  _254
REMARK  105  A    between atoms: _253  and  _256
REMARK  106  A    between atoms: _256  and  _257
REMARK  107  A    between atoms: _257  and  _258
REMARK  108  A    between atoms: _258  and  _259
REMARK  109  A    between atoms: _268  and  _270
REMARK  110  A    between atoms: _270  and  _271
REMARK  111  A    between atoms: _270  and  _273
REMARK  112  A    between atoms: _273  and  _274
REMARK  113  A    between atoms: _279  and  _281
REMARK  114  A    between atoms: _281  and  _282
REMARK  115  A    between atoms: _281  and  _284
REMARK  116  A    between atoms: _284  and  _285
REMARK  117  A    between atoms: _285  and  _286
REMARK  118  A    between atoms: _286  and  _287
REMARK  119  A    between atoms: _296  and  _298
REMARK  120  A    between atoms: _298  and  _299
REMARK  121  A    between atoms: _298  and  _301
REMARK  122  A    between atoms: _301  and  _302
REMARK  123  A    between atoms: _305  and  _307
REMARK  124  A    between atoms: _307  and  _308
REMARK  125  A    between atoms: _307  and  _310
REMARK  126  A    between atoms: _310  and  _311
REMARK  127  A    between atoms: _314  and  _316
REMARK  128  A    between atoms: _316  and  _317
REMARK  129  A    between atoms: _316  and  _319
REMARK  130  A    between atoms: _319  and  _320
REMARK  131  A    between atoms: _323  and  _325
REMARK  132  A    between atoms: _325  and  _326
REMARK  133  A    between atoms: _325  and  _328
REMARK  134  A    between atoms: _328  and  _329
REMARK  135  A    between atoms: _332  and  _334
REMARK  136  A    between atoms: _334  and  _335
REMARK  137  A    between atoms: _337  and  _339
REMARK  138  A    between atoms: _339  and  _340
REMARK  139  A    between atoms: _343  and  _345
REMARK  140  A    between atoms: _345  and  _346
REMARK  141  A    between atoms: _345  and  _348
REMARK  142  A    between atoms: _348  and  _349
REMARK  143  A    between atoms: _352  and  _354
REMARK  144  A    between atoms: _354  and  _355
REMARK  145  A    between atoms: _354  and  _357
REMARK  146  A    between atoms: _357  and  _358
REMARK  147  A    between atoms: _361  and  _363
REMARK  148  A    between atoms: _363  and  _364
REMARK  149  A    between atoms: _363  and  _366
REMARK  150  A    between atoms: _366  and  _367
REMARK  151  A    between atoms: _370  and  _372
REMARK  152  A    between atoms: _372  and  _373
REMARK  153  A    between atoms: _372  and  _375
REMARK  154  A    between atoms: _378  and  _380
REMARK  155  A    between atoms: _380  and  _381
REMARK  156  A    between atoms: _380  and  _383
REMARK  157  A    between atoms: _384  and  _385
REMARK  158  A    between atoms: _385  and  _386
REMARK  159  A    between atoms: _386  and  _387
REMARK  160  A    between atoms: _391  and  _393
REMARK  161  A    between atoms: _393  and  _394
REMARK  162  A    between atoms: _393  and  _396
REMARK  163  A    between atoms: _396  and  _397
REMARK  164  A    between atoms: _397  and  _398
REMARK  165  A    between atoms: _400  and  _402
REMARK  166  A    between atoms: _402  and  _403
REMARK  167  A    between atoms: _402  and  _405
REMARK  168  A    between atoms: _405  and  _406
REMARK  169  A    between atoms: _409  and  _411
REMARK  170  A    between atoms: _411  and  _412
REMARK  171  A    between atoms: _414  and  _416
REMARK  172  A    between atoms: _416  and  _417
REMARK  173  A    between atoms: _419  and  _421
REMARK  174  A    between atoms: _421  and  _422
REMARK  175  A    between atoms: _421  and  _424
REMARK  176  A    between atoms: _424  and  _425
REMARK  177  A    between atoms: _428  and  _430
REMARK  178  A    between atoms: _430  and  _431
REMARK  179  A    between atoms: _433  and  _435
REMARK  180  A    between atoms: _435  and  _436
REMARK  181  A    between atoms: _438  and  _440
REMARK  182  A    between atoms: _440  and  _441
REMARK  183  A    between atoms: _440  and  _443
REMARK  184  A    between atoms: _443  and  _444
REMARK  185  A    between atoms: _450  and  _452
REMARK  186  A    between atoms: _452  and  _453
REMARK  187  A    between atoms: _452  and  _455
REMARK  188  A    between atoms: _455  and  _456
REMARK  189  A    between atoms: _459  and  _461
REMARK  190  A    between atoms: _461  and  _462
REMARK  191  A    between atoms: _461  and  _464
REMARK  192  A    between atoms: _467  and  _469
REMARK  193  A    between atoms: _469  and  _470
REMARK  194  A    between atoms: _469  and  _472
REMARK  195  A    between atoms: _472  and  _473
REMARK  196  A    between atoms: _476  and  _478
REMARK  197  A    between atoms: _478  and  _479
REMARK  198  A    between atoms: _478  and  _481
REMARK  199  A    between atoms: _481  and  _482
REMARK  200  A    between atoms: _486  and  _487
REMARK  201  A    between atoms: _492  and  _494
REMARK  202  A    between atoms: _494  and  _495
REMARK  203  A    between atoms: _494  and  _497
REMARK  204  A    between atoms: _500  and  _502
REMARK  205  A    between atoms: _502  and  _503
REMARK  206  A    between atoms: _502  and  _505
REMARK  207  A    between atoms: _505  and  _506
REMARK  208  A    between atoms: _511  and  _513
REMARK  209  A    between atoms: _513  and  _514
REMARK  210  A    between atoms: _513  and  _516
REMARK  211  A    between atoms: _516  and  _517
REMARK  212  A    between atoms: _520  and  _522
REMARK  213  A    between atoms: _522  and  _523
REMARK  214  A    between atoms: _522  and  _525
REMARK  215  A    between atoms: _525  and  _526
REMARK  216  A    between atoms: _529  and  _531
REMARK  217  A    between atoms: _531  and  _532
REMARK  218  A    between atoms: _534  and  _536
REMARK  219  A    between atoms: _536  and  _537
REMARK  220  A    between atoms: _536  and  _539
REMARK  221  A    between atoms: _539  and  _540
REMARK  222  A    between atoms: _540  and  _541
REMARK  223  A    between atoms: _541  and  _542
REMARK  224  A    between atoms: _551  and  _553
REMARK  225  A    between atoms: _553  and  _554
REMARK  226  A    between atoms: _553  and  _556
REMARK  227  A    between atoms: _556  and  _557
REMARK                            x       y       z     vdW  Elec       q    Type
REMARK                         _______ _______ _______ _____ _____    ______ ____
ROOT
ATOM      1  O   HOH     1      26.412  26.199  23.770  0.00  0.00    +0.000 OA
ENDROOT
TORSDOF 0
REMARK  Name = ../refined-set-2016/3a2o/3a2o_pocket.pdb
REMARK  227 active torsions:
REMARK  status: ('A' for Active; 'I' for Inactive)
REMARK    1  A    between atoms: _1  and  _3
REMARK    2  A    between atoms: _3  and  _4
REMARK    3  A    between atoms: _3  and  _6
REMARK    4  A    between atoms: _6  and  _7
REMARK    5  A    between atoms: _7  and  _8
REMARK    6  A    between atoms: _8  and  _9
REMARK    7  A    between atoms: _18  and  _20
REMARK    8  A    between atoms: _20  and  _21
REMARK    9  A    between atoms: _20  and  _23
REMARK   10  A    between atoms: _23  and  _24
REMARK   11  A    between atoms: _27  and  _29
REMARK   12  A    between atoms: _29  and  _30
REMARK   13  A    between atoms: _29  and  _32
REMARK   14  A    between atoms: _32  and  _33
REMARK   15  A    between atoms: _36  and  _38
REMARK   16  A    between atoms: _38  and  _39
REMARK   17  A    between atoms: _38  and  _41
REMARK   18  A    between atoms: _41  and  _42
REMARK   19  A    between atoms: _45  and  _47
REMARK   20  A    between atoms: _47  and  _48
REMARK   21  A    between atoms: _47  and  _50
REMARK   22  A    between atoms: _50  and  _51
REMARK   23  A    between atoms: _54  and  _56
REMARK   24  A    between atoms: _56  and  _57
REMARK   25  A    between atoms: _59  and  _61
REMARK   26  A    between atoms: _61  and  _62
REMARK   27  A    between atoms: _65  and  _67
REMARK   28  A    between atoms: _67  and  _68
REMARK   29  A    between atoms: _67  and  _70
REMARK   30  A    between atoms: _70  and  _71
REMARK   31  A    between atoms: _74  and  _76
REMARK   32  A    between atoms: _76  and  _77
REMARK   33  A    between atoms: _76  and  _79
REMARK   34  A    between atoms: _79  and  _80
REMARK   35  A    between atoms: _83  and  _85
REMARK   36  A    between atoms: _85  and  _86
REMARK   37  A    between atoms: _85  and  _88
REMARK   38  A    between atoms: _88  and  _89
REMARK   39  A    between atoms: _92  and  _94
REMARK   40  A    between atoms: _94  and  _95
REMARK   41  A    between atoms: _94  and  _97
REMARK   42  A    between atoms: _100  and  _102
REMARK   43  A    between atoms: _102  and  _103
REMARK   44  A    between atoms: _102  and  _105
REMARK   45  A    between atoms: _106  and  _107
REMARK   46  A    between atoms: _107  and  _108
REMARK   47  A    between atoms: _108  and  _109
REMARK   48  A    between atoms: _113  and  _115
REMARK   49  A    between atoms: _115  and  _116
REMARK   50  A    between atoms: _115  and  _118
REMARK   51  A    between atoms: _118  and  _119
REMARK   52  A    between atoms: _119  and  _120
REMARK   53  A    between atoms: _122  and  _124
REMARK   54  A    between atoms: _124  and  _125
REMARK   55  A    between atoms: _124  and  _127
REMARK   56  A    between atoms: _127  and  _128
REMARK   57  A    between atoms: _131  and  _133
REMARK   58  A    between atoms: _133  and  _134
REMARK   59  A    between atoms: _136  and  _138
REMARK   60  A    between atoms: _138  and  _139
REMARK   61  A    between atoms: _141  and  _143
REMARK   62  A    between atoms: _143  and  _144
REMARK   63  A    between atoms: _143  and  _146
REMARK   64  A    between atoms: _146  and  _147
REMARK   65  A    between atoms: _150  and  _152
REMARK   66  A    between atoms: _152  and  _153
REMARK   67  A    between atoms: _155  and  _157
REMARK   68  A    between atoms: _157  and  _158
REMARK   69  A    between atoms: _160  and  _162
REMARK   70  A    between atoms: _162  and  _163
REMARK   71  A    between atoms: _162  and  _165
REMARK   72  A    between atoms: _165  and  _166
REMARK   73  A    between atoms: _169  and  _171
REMARK   74  A    between atoms: _171  and  _172
REMARK   75  A    between atoms: _171  and  _174
REMARK   76  A    between atoms: _177  and  _179
REMARK   77  A    between atoms: _179  and  _180
REMARK   78  A    between atoms: _179  and  _182
REMARK   79  A    between atoms: _182  and  _183
REMARK   80  A    between atoms: _187  and  _188
REMARK   81  A    between atoms: _193  and  _195
REMARK   82  A    between atoms: _195  and  _196
REMARK   83  A    between atoms: _195  and  _198
REMARK   84  A    between atoms: _198  and  _199
REMARK   85  A    between atoms: _203  and  _204
REMARK   86  A    between atoms: _209  and  _211
REMARK   87  A    between atoms: _211  and  _212
REMARK   88  A    between atoms: _211  and  _214
REMARK   89  A    between atoms: _217  and  _219
REMARK   90  A    between atoms: _219  and  _220
REMARK   91  A    between atoms: _219  and  _222
REMARK   92  A    between atoms: _222  and  _223
REMARK   93  A    between atoms: _228  and  _230
REMARK   94  A    between atoms: _230  and  _231
REMARK   95  A    between atoms: _230  and  _233
REMARK   96  A    between atoms: _233  and  _234
REMARK   97  A    between atoms: _237  and  _239
REMARK   98  A    between atoms: _239  and  _240
REMARK   99  A    between atoms: _239  and  _242
REMARK  100  A    between atoms: _242  and  _243
REMARK  101  A    between atoms: _246  and  _248
REMARK  102  A    between atoms: _248  and  _249
REMARK  103  A    between atoms: _251  and  _253
REMARK  104  A    between atoms: _253  and  _254
REMARK  105  A    between atoms: _253  and  _256
REMARK  106  A    between atoms: _256  and  _257
REMARK  107  A    between atoms: _257  and  _258
REMARK  108  A    between atoms: _258  and  _259
REMARK  109  A    between atoms: _268  and  _270
REMARK  110  A    between atoms: _270  and  _271
REMARK  111  A    between atoms: _270  and  _273
REMARK  112  A    between atoms: _273  and  _274
REMARK  113  A    between atoms: _279  and  _281
REMARK  114  A    between atoms: _281  and  _282
REMARK  115  A    between atoms: _281  and  _284
REMARK  116  A    between atoms: _284  and  _285
REMARK  117  A    between atoms: _285  and  _286
REMARK  118  A    between atoms: _286  and  _287
REMARK  119  A    between atoms: _296  and  _298
REMARK  120  A    between atoms: _298  and  _299
REMARK  121  A    between atoms: _298  and  _301
REMARK  122  A    between atoms: _301  and  _302
REMARK  123  A    between atoms: _305  and  _307
REMARK  124  A    between atoms: _307  and  _308
REMARK  125  A    between atoms: _307  and  _310
REMARK  126  A    between atoms: _310  and  _311
REMARK  127  A    between atoms: _314  and  _316
REMARK  128  A    between atoms: _316  and  _317
REMARK  129  A    between atoms: _316  and  _319
REMARK  130  A    between atoms: _319  and  _320
REMARK  131  A    between atoms: _323  and  _325
REMARK  132  A    between atoms: _325  and  _326
REMARK  133  A    between atoms: _325  and  _328
REMARK  134  A    between atoms: _328  and  _329
REMARK  135  A    between atoms: _332  and  _334
REMARK  136  A    between atoms: _334  and  _335
REMARK  137  A    between atoms: _337  and  _339
REMARK  138  A    between atoms: _339  and  _340
REMARK  139  A    between atoms: _343  and  _345
REMARK  140  A    between atoms: _345  and  _346
REMARK  141  A    between atoms: _345  and  _348
REMARK  142  A    between atoms: _348  and  _349
REMARK  143  A    between atoms: _352  and  _354
REMARK  144  A    between atoms: _354  and  _355
REMARK  145  A    between atoms: _354  and  _357
REMARK  146  A    between atoms: _357  and  _358
REMARK  147  A    between atoms: _361  and  _363
REMARK  148  A    between atoms: _363  and  _364
REMARK  149  A    between atoms: _363  and  _366
REMARK  150  A    between atoms: _366  and  _367
REMARK  151  A    between atoms: _370  and  _372
REMARK  152  A    between atoms: _372  and  _373
REMARK  153  A    between atoms: _372  and  _375
REMARK  154  A    between atoms: _378  and  _380
REMARK  155  A    between atoms: _380  and  _381
REMARK  156  A    between atoms: _380  and  _383
REMARK  157  A    between atoms: _384  and  _385
REMARK  158  A    between atoms: _385  and  _386
REMARK  159  A    between atoms: _386  and  _387
REMARK  160  A    between atoms: _391  and  _393
REMARK  161  A    between atoms: _393  and  _394
REMARK  162  A    between atoms: _393  and  _396
REMARK  163  A    between atoms: _396  and  _397
REMARK  164  A    between atoms: _397  and  _398
REMARK  165  A    between atoms: _400  and  _402
REMARK  166  A    between atoms: _402  and  _403
REMARK  167  A    between atoms: _402  and  _405
REMARK  168  A    between atoms: _405  and  _406
REMARK  169  A    between atoms: _409  and  _411
REMARK  170  A    between atoms: _411  and  _412
REMARK  171  A    between atoms: _414  and  _416
REMARK  172  A    between atoms: _416  and  _417
REMARK  173  A    between atoms: _419  and  _421
REMARK  174  A    between atoms: _421  and  _422
REMARK  175  A    between atoms: _421  and  _424
REMARK  176  A    between atoms: _424  and  _425
REMARK  177  A    between atoms: _428  and  _430
REMARK  178  A    between atoms: _430  and  _431
REMARK  179  A    between atoms: _433  and  _435
REMARK  180  A    between atoms: _435  and  _436
REMARK  181  A    between atoms: _438  and  _440
REMARK  182  A    between atoms: _440  and  _441
REMARK  183  A    between atoms: _440  and  _443
REMARK  184  A    between atoms: _443  and  _444
REMARK  185  A    between atoms: _450  and  _452
REMARK  186  A    between atoms: _452  and  _453
REMARK  187  A    between atoms: _452  and  _455
REMARK  188  A    between atoms: _455  and  _456
REMARK  189  A    between atoms: _459  and  _461
REMARK  190  A    between atoms: _461  and  _462
REMARK  191  A    between atoms: _461  and  _464
REMARK  192  A    between atoms: _467  and  _469
REMARK  193  A    between atoms: _469  and  _470
REMARK  194  A    between atoms: _469  and  _472
REMARK  195  A    between atoms: _472  and  _473
REMARK  196  A    between atoms: _476  and  _478
REMARK  197  A    between atoms: _478  and  _479
REMARK  198  A    between atoms: _478  and  _481
REMARK  199  A    between atoms: _481  and  _482
REMARK  200  A    between atoms: _486  and  _487
REMARK  201  A    between atoms: _492  and  _494
REMARK  202  A    between atoms: _494  and  _495
REMARK  203  A    between atoms: _494  and  _497
REMARK  204  A    between atoms: _500  and  _502
REMARK  205  A    between atoms: _502  and  _503
REMARK  206  A    between atoms: _502  and  _505
REMARK  207  A    between atoms: _505  and  _506
REMARK  208  A    between atoms: _511  and  _513
REMARK  209  A    between atoms: _513  and  _514
REMARK  210  A    between atoms: _513  and  _516
REMARK  211  A    between atoms: _516  and  _517
REMARK  212  A    between atoms: _520  and  _522
REMARK  213  A    between atoms: _522  and  _523
REMARK  214  A    between atoms: _522  and  _525
REMARK  215  A    between atoms: _525  and  _526
REMARK  216  A    between atoms: _529  and  _531
REMARK  217  A    between atoms: _531  and  _532
REMARK  218  A    between atoms: _534  and  _536
REMARK  219  A    between atoms: _536  and  _537
REMARK  220  A    between atoms: _536  and  _539
REMARK  221  A    between atoms: _539  and  _540
REMARK  222  A    between atoms: _540  and  _541
REMARK  223  A    between atoms: _541  and  _542
REMARK  224  A    between atoms: _551  and  _553
REMARK  225  A    between atoms: _553  and  _554
REMARK  226  A    between atoms: _553  and  _556
REMARK  227  A    between atoms: _556  and  _557
REMARK                            x       y       z     vdW  Elec       q    Type
REMARK                         _______ _______ _______ _____ _____    ______ ____
ROOT
ATOM      1  O   HOH     1      11.450  17.522  11.804  0.00  0.00    +0.000 OA
ENDROOT
TORSDOF 0
REMARK  Name = ../refined-set-2016/3a2o/3a2o_pocket.pdb
REMARK  227 active torsions:
REMARK  status: ('A' for Active; 'I' for Inactive)
REMARK    1  A    between atoms: _1  and  _3
REMARK    2  A    between atoms: _3  and  _4
REMARK    3  A    between atoms: _3  and  _6
REMARK    4  A    between atoms: _6  and  _7
REMARK    5  A    between atoms: _7  and  _8
REMARK    6  A    between atoms: _8  and  _9
REMARK    7  A    between atoms: _18  and  _20
REMARK    8  A    between atoms: _20  and  _21
REMARK    9  A    between atoms: _20  and  _23
REMARK   10  A    between atoms: _23  and  _24
REMARK   11  A    between atoms: _27  and  _29
REMARK   12  A    between atoms: _29  and  _30
REMARK   13  A    between atoms: _29  and  _32
REMARK   14  A    between atoms: _32  and  _33
REMARK   15  A    between atoms: _36  and  _38
REMARK   16  A    between atoms: _38  and  _39
REMARK   17  A    between atoms: _38  and  _41
REMARK   18  A    between atoms: _41  and  _42
REMARK   19  A    between atoms: _45  and  _47
REMARK   20  A    between atoms: _47  and  _48
REMARK   21  A    between atoms: _47  and  _50
REMARK   22  A    between atoms: _50  and  _51
REMARK   23  A    between atoms: _54  and  _56
REMARK   24  A    between atoms: _56  and  _57
REMARK   25  A    between atoms: _59  and  _61
REMARK   26  A    between atoms: _61  and  _62
REMARK   27  A    between atoms: _65  and  _67
REMARK   28  A    between atoms: _67  and  _68
REMARK   29  A    between atoms: _67  and  _70
REMARK   30  A    between atoms: _70  and  _71
REMARK   31  A    between atoms: _74  and  _76
REMARK   32  A    between atoms: _76  and  _77
REMARK   33  A    between atoms: _76  and  _79
REMARK   34  A    between atoms: _79  and  _80
REMARK   35  A    between atoms: _83  and  _85
REMARK   36  A    between atoms: _85  and  _86
REMARK   37  A    between atoms: _85  and  _88
REMARK   38  A    between atoms: _88  and  _89
REMARK   39  A    between atoms: _92  and  _94
REMARK   40  A    between atoms: _94  and  _95
REMARK   41  A    between atoms: _94  and  _97
REMARK   42  A    between atoms: _100  and  _102
REMARK   43  A    between atoms: _102  and  _103
REMARK   44  A    between atoms: _102  and  _105
REMARK   45  A    between atoms: _106  and  _107
REMARK   46  A    between atoms: _107  and  _108
REMARK   47  A    between atoms: _108  and  _109
REMARK   48  A    between atoms: _113  and  _115
REMARK   49  A    between atoms: _115  and  _116
REMARK   50  A    between atoms: _115  and  _118
REMARK   51  A    between atoms: _118  and  _119
REMARK   52  A    between atoms: _119  and  _120
REMARK   53  A    between atoms: _122  and  _124
REMARK   54  A    between atoms: _124  and  _125
REMARK   55  A    between atoms: _124  and  _127
REMARK   56  A    between atoms: _127  and  _128
REMARK   57  A    between atoms: _131  and  _133
REMARK   58  A    between atoms: _133  and  _134
REMARK   59  A    between atoms: _136  and  _138
REMARK   60  A    between atoms: _138  and  _139
REMARK   61  A    between atoms: _141  and  _143
REMARK   62  A    between atoms: _143  and  _144
REMARK   63  A    between atoms: _143  and  _146
REMARK   64  A    between atoms: _146  and  _147
REMARK   65  A    between atoms: _150  and  _152
REMARK   66  A    between atoms: _152  and  _153
REMARK   67  A    between atoms: _155  and  _157
REMARK   68  A    between atoms: _157  and  _158
REMARK   69  A    between atoms: _160  and  _162
REMARK   70  A    between atoms: _162  and  _163
REMARK   71  A    between atoms: _162  and  _165
REMARK   72  A    between atoms: _165  and  _166
REMARK   73  A    between atoms: _169  and  _171
REMARK   74  A    between atoms: _171  and  _172
REMARK   75  A    between atoms: _171  and  _174
REMARK   76  A    between atoms: _177  and  _179
REMARK   77  A    between atoms: _179  and  _180
REMARK   78  A    between atoms: _179  and  _182
REMARK   79  A    between atoms: _182  and  _183
REMARK   80  A    between atoms: _187  and  _188
REMARK   81  A    between atoms: _193  and  _195
REMARK   82  A    between atoms: _195  and  _196
REMARK   83  A    between atoms: _195  and  _198
REMARK   84  A    between atoms: _198  and  _199
REMARK   85  A    between atoms: _203  and  _204
REMARK   86  A    between atoms: _209  and  _211
REMARK   87  A    between atoms: _211  and  _212
REMARK   88  A    between atoms: _211  and  _214
REMARK   89  A    between atoms: _217  and  _219
REMARK   90  A    between atoms: _219  and  _220
REMARK   91  A    between atoms: _219  and  _222
REMARK   92  A    between atoms: _222  and  _223
REMARK   93  A    between atoms: _228  and  _230
REMARK   94  A    between atoms: _230  and  _231
REMARK   95  A    between atoms: _230  and  _233
REMARK   96  A    between atoms: _233  and  _234
REMARK   97  A    between atoms: _237  and  _239
REMARK   98  A    between atoms: _239  and  _240
REMARK   99  A    between atoms: _239  and  _242
REMARK  100  A    between atoms: _242  and  _243
REMARK  101  A    between atoms: _246  and  _248
REMARK  102  A    between atoms: _248  and  _249
REMARK  103  A    between atoms: _251  and  _253
REMARK  104  A    between atoms: _253  and  _254
REMARK  105  A    between atoms: _253  and  _256
REMARK  106  A    between atoms: _256  and  _257
REMARK  107  A    between atoms: _257  and  _258
REMARK  108  A    between atoms: _258  and  _259
REMARK  109  A    between atoms: _268  and  _270
REMARK  110  A    between atoms: _270  and  _271
REMARK  111  A    between atoms: _270  and  _273
REMARK  112  A    between atoms: _273  and  _274
REMARK  113  A    between atoms: _279  and  _281
REMARK  114  A    between atoms: _281  and  _282
REMARK  115  A    between atoms: _281  and  _284
REMARK  116  A    between atoms: _284  and  _285
REMARK  117  A    between atoms: _285  and  _286
REMARK  118  A    between atoms: _286  and  _287
REMARK  119  A    between atoms: _296  and  _298
REMARK  120  A    between atoms: _298  and  _299
REMARK  121  A    between atoms: _298  and  _301
REMARK  122  A    between atoms: _301  and  _302
REMARK  123  A    between atoms: _305  and  _307
REMARK  124  A    between atoms: _307  and  _308
REMARK  125  A    between atoms: _307  and  _310
REMARK  126  A    between atoms: _310  and  _311
REMARK  127  A    between atoms: _314  and  _316
REMARK  128  A    between atoms: _316  and  _317
REMARK  129  A    between atoms: _316  and  _319
REMARK  130  A    between atoms: _319  and  _320
REMARK  131  A    between atoms: _323  and  _325
REMARK  132  A    between atoms: _325  and  _326
REMARK  133  A    between atoms: _325  and  _328
REMARK  134  A    between atoms: _328  and  _329
REMARK  135  A    between atoms: _332  and  _334
REMARK  136  A    between atoms: _334  and  _335
REMARK  137  A    between atoms: _337  and  _339
REMARK  138  A    between atoms: _339  and  _340
REMARK  139  A    between atoms: _343  and  _345
REMARK  140  A    between atoms: _345  and  _346
REMARK  141  A    between atoms: _345  and  _348
REMARK  142  A    between atoms: _348  and  _349
REMARK  143  A    between atoms: _352  and  _354
REMARK  144  A    between atoms: _354  and  _355
REMARK  145  A    between atoms: _354  and  _357
REMARK  146  A    between atoms: _357  and  _358
REMARK  147  A    between atoms: _361  and  _363
REMARK  148  A    between atoms: _363  and  _364
REMARK  149  A    between atoms: _363  and  _366
REMARK  150  A    between atoms: _366  and  _367
REMARK  151  A    between atoms: _370  and  _372
REMARK  152  A    between atoms: _372  and  _373
REMARK  153  A    between atoms: _372  and  _375
REMARK  154  A    between atoms: _378  and  _380
REMARK  155  A    between atoms: _380  and  _381
REMARK  156  A    between atoms: _380  and  _383
REMARK  157  A    between atoms: _384  and  _385
REMARK  158  A    between atoms: _385  and  _386
REMARK  159  A    between atoms: _386  and  _387
REMARK  160  A    between atoms: _391  and  _393
REMARK  161  A    between atoms: _393  and  _394
REMARK  162  A    between atoms: _393  and  _396
REMARK  163  A    between atoms: _396  and  _397
REMARK  164  A    between atoms: _397  and  _398
REMARK  165  A    between atoms: _400  and  _402
REMARK  166  A    between atoms: _402  and  _403
REMARK  167  A    between atoms: _402  and  _405
REMARK  168  A    between atoms: _405  and  _406
REMARK  169  A    between atoms: _409  and  _411
REMARK  170  A    between atoms: _411  and  _412
REMARK  171  A    between atoms: _414  and  _416
REMARK  172  A    between atoms: _416  and  _417
REMARK  173  A    between atoms: _419  and  _421
REMARK  174  A    between atoms: _421  and  _422
REMARK  175  A    between atoms: _421  and  _424
REMARK  176  A    between atoms: _424  and  _425
REMARK  177  A    between atoms: _428  and  _430
REMARK  178  A    between atoms: _430  and  _431
REMARK  179  A    between atoms: _433  and  _435
REMARK  180  A    between atoms: _435  and  _436
REMARK  181  A    between atoms: _438  and  _440
REMARK  182  A    between atoms: _440  and  _441
REMARK  183  A    between atoms: _440  and  _443
REMARK  184  A    between atoms: _443  and  _444
REMARK  185  A    between atoms: _450  and  _452
REMARK  186  A    between atoms: _452  and  _453
REMARK  187  A    between atoms: _452  and  _455
REMARK  188  A    between atoms: _455  and  _456
REMARK  189  A    between atoms: _459  and  _461
REMARK  190  A    between atoms: _461  and  _462
REMARK  191  A    between atoms: _461  and  _464
REMARK  192  A    between atoms: _467  and  _469
REMARK  193  A    between atoms: _469  and  _470
REMARK  194  A    between atoms: _469  and  _472
REMARK  195  A    between atoms: _472  and  _473
REMARK  196  A    between atoms: _476  and  _478
REMARK  197  A    between atoms: _478  and  _479
REMARK  198  A    between atoms: _478  and  _481
REMARK  199  A    between atoms: _481  and  _482
REMARK  200  A    between atoms: _486  and  _487
REMARK  201  A    between atoms: _492  and  _494
REMARK  202  A    between atoms: _494  and  _495
REMARK  203  A    between atoms: _494  and  _497
REMARK  204  A    between atoms: _500  and  _502
REMARK  205  A    between atoms: _502  and  _503
REMARK  206  A    between atoms: _502  and  _505
REMARK  207  A    between atoms: _505  and  _506
REMARK  208  A    between atoms: _511  and  _513
REMARK  209  A    between atoms: _513  and  _514
REMARK  210  A    between atoms: _513  and  _516
REMARK  211  A    between atoms: _516  and  _517
REMARK  212  A    between atoms: _520  and  _522
REMARK  213  A    between atoms: _522  and  _523
REMARK  214  A    between atoms: _522  and  _525
REMARK  215  A    between atoms: _525  and  _526
REMARK  216  A    between atoms: _529  and  _531
REMARK  217  A    between atoms: _531  and  _532
REMARK  218  A    between atoms: _534  and  _536
REMARK  219  A    between atoms: _536  and  _537
REMARK  220  A    between atoms: _536  and  _539
REMARK  221  A    between atoms: _539  and  _540
REMARK  222  A    between atoms: _540  and  _541
REMARK  223  A    between atoms: _541  and  _542
REMARK  224  A    between atoms: _551  and  _553
REMARK  225  A    between atoms: _553  and  _554
REMARK  226  A    between atoms: _553  and  _556
REMARK  227  A    between atoms: _556  and  _557
REMARK                            x       y       z     vdW  Elec       q    Type
REMARK                         _______ _______ _______ _____ _____    ______ ____
ROOT
ATOM      1  O   HOH     1       3.689  14.151  22.522  0.00  0.00    +0.000 OA
ENDROOT
TORSDOF 0
REMARK  Name = ../refined-set-2016/3a2o/3a2o_pocket.pdb
REMARK  227 active torsions:
REMARK  status: ('A' for Active; 'I' for Inactive)
REMARK    1  A    between atoms: _1  and  _3
REMARK    2  A    between atoms: _3  and  _4
REMARK    3  A    between atoms: _3  and  _6
REMARK    4  A    between atoms: _6  and  _7
REMARK    5  A    between atoms: _7  and  _8
REMARK    6  A    between atoms: _8  and  _9
REMARK    7  A    between atoms: _18  and  _20
REMARK    8  A    between atoms: _20  and  _21
REMARK    9  A    between atoms: _20  and  _23
REMARK   10  A    between atoms: _23  and  _24
REMARK   11  A    between atoms: _27  and  _29
REMARK   12  A    between atoms: _29  and  _30
REMARK   13  A    between atoms: _29  and  _32
REMARK   14  A    between atoms: _32  and  _33
REMARK   15  A    between atoms: _36  and  _38
REMARK   16  A    between atoms: _38  and  _39
REMARK   17  A    between atoms: _38  and  _41
REMARK   18  A    between atoms: _41  and  _42
REMARK   19  A    between atoms: _45  and  _47
REMARK   20  A    between atoms: _47  and  _48
REMARK   21  A    between atoms: _47  and  _50
REMARK   22  A    between atoms: _50  and  _51
REMARK   23  A    between atoms: _54  and  _56
REMARK   24  A    between atoms: _56  and  _57
REMARK   25  A    between atoms: _59  and  _61
REMARK   26  A    between atoms: _61  and  _62
REMARK   27  A    between atoms: _65  and  _67
REMARK   28  A    between atoms: _67  and  _68
REMARK   29  A    between atoms: _67  and  _70
REMARK   30  A    between atoms: _70  and  _71
REMARK   31  A    between atoms: _74  and  _76
REMARK   32  A    between atoms: _76  and  _77
REMARK   33  A    between atoms: _76  and  _79
REMARK   34  A    between atoms: _79  and  _80
REMARK   35  A    between atoms: _83  and  _85
REMARK   36  A    between atoms: _85  and  _86
REMARK   37  A    between atoms: _85  and  _88
REMARK   38  A    between atoms: _88  and  _89
REMARK   39  A    between atoms: _92  and  _94
REMARK   40  A    between atoms: _94  and  _95
REMARK   41  A    between atoms: _94  and  _97
REMARK   42  A    between atoms: _100  and  _102
REMARK   43  A    between atoms: _102  and  _103
REMARK   44  A    between atoms: _102  and  _105
REMARK   45  A    between atoms: _106  and  _107
REMARK   46  A    between atoms: _107  and  _108
REMARK   47  A    between atoms: _108  and  _109
REMARK   48  A    between atoms: _113  and  _115
REMARK   49  A    between atoms: _115  and  _116
REMARK   50  A    between atoms: _115  and  _118
REMARK   51  A    between atoms: _118  and  _119
REMARK   52  A    between atoms: _119  and  _120
REMARK   53  A    between atoms: _122  and  _124
REMARK   54  A    between atoms: _124  and  _125
REMARK   55  A    between atoms: _124  and  _127
REMARK   56  A    between atoms: _127  and  _128
REMARK   57  A    between atoms: _131  and  _133
REMARK   58  A    between atoms: _133  and  _134
REMARK   59  A    between atoms: _136  and  _138
REMARK   60  A    between atoms: _138  and  _139
REMARK   61  A    between atoms: _141  and  _143
REMARK   62  A    between atoms: _143  and  _144
REMARK   63  A    between atoms: _143  and  _146
REMARK   64  A    between atoms: _146  and  _147
REMARK   65  A    between atoms: _150  and  _152
REMARK   66  A    between atoms: _152  and  _153
REMARK   67  A    between atoms: _155  and  _157
REMARK   68  A    between atoms: _157  and  _158
REMARK   69  A    between atoms: _160  and  _162
REMARK   70  A    between atoms: _162  and  _163
REMARK   71  A    between atoms: _162  and  _165
REMARK   72  A    between atoms: _165  and  _166
REMARK   73  A    between atoms: _169  and  _171
REMARK   74  A    between atoms: _171  and  _172
REMARK   75  A    between atoms: _171  and  _174
REMARK   76  A    between atoms: _177  and  _179
REMARK   77  A    between atoms: _179  and  _180
REMARK   78  A    between atoms: _179  and  _182
REMARK   79  A    between atoms: _182  and  _183
REMARK   80  A    between atoms: _187  and  _188
REMARK   81  A    between atoms: _193  and  _195
REMARK   82  A    between atoms: _195  and  _196
REMARK   83  A    between atoms: _195  and  _198
REMARK   84  A    between atoms: _198  and  _199
REMARK   85  A    between atoms: _203  and  _204
REMARK   86  A    between atoms: _209  and  _211
REMARK   87  A    between atoms: _211  and  _212
REMARK   88  A    between atoms: _211  and  _214
REMARK   89  A    between atoms: _217  and  _219
REMARK   90  A    between atoms: _219  and  _220
REMARK   91  A    between atoms: _219  and  _222
REMARK   92  A    between atoms: _222  and  _223
REMARK   93  A    between atoms: _228  and  _230
REMARK   94  A    between atoms: _230  and  _231
REMARK   95  A    between atoms: _230  and  _233
REMARK   96  A    between atoms: _233  and  _234
REMARK   97  A    between atoms: _237  and  _239
REMARK   98  A    between atoms: _239  and  _240
REMARK   99  A    between atoms: _239  and  _242
REMARK  100  A    between atoms: _242  and  _243
REMARK  101  A    between atoms: _246  and  _248
REMARK  102  A    between atoms: _248  and  _249
REMARK  103  A    between atoms: _251  and  _253
REMARK  104  A    between atoms: _253  and  _254
REMARK  105  A    between atoms: _253  and  _256
REMARK  106  A    between atoms: _256  and  _257
REMARK  107  A    between atoms: _257  and  _258
REMARK  108  A    between atoms: _258  and  _259
REMARK  109  A    between atoms: _268  and  _270
REMARK  110  A    between atoms: _270  and  _271
REMARK  111  A    between atoms: _270  and  _273
REMARK  112  A    between atoms: _273  and  _274
REMARK  113  A    between atoms: _279  and  _281
REMARK  114  A    between atoms: _281  and  _282
REMARK  115  A    between atoms: _281  and  _284
REMARK  116  A    between atoms: _284  and  _285
REMARK  117  A    between atoms: _285  and  _286
REMARK  118  A    between atoms: _286  and  _287
REMARK  119  A    between atoms: _296  and  _298
REMARK  120  A    between atoms: _298  and  _299
REMARK  121  A    between atoms: _298  and  _301
REMARK  122  A    between atoms: _301  and  _302
REMARK  123  A    between atoms: _305  and  _307
REMARK  124  A    between atoms: _307  and  _308
REMARK  125  A    between atoms: _307  and  _310
REMARK  126  A    between atoms: _310  and  _311
REMARK  127  A    between atoms: _314  and  _316
REMARK  128  A    between atoms: _316  and  _317
REMARK  129  A    between atoms: _316  and  _319
REMARK  130  A    between atoms: _319  and  _320
REMARK  131  A    between atoms: _323  and  _325
REMARK  132  A    between atoms: _325  and  _326
REMARK  133  A    between atoms: _325  and  _328
REMARK  134  A    between atoms: _328  and  _329
REMARK  135  A    between atoms: _332  and  _334
REMARK  136  A    between atoms: _334  and  _335
REMARK  137  A    between atoms: _337  and  _339
REMARK  138  A    between atoms: _339  and  _340
REMARK  139  A    between atoms: _343  and  _345
REMARK  140  A    between atoms: _345  and  _346
REMARK  141  A    between atoms: _345  and  _348
REMARK  142  A    between atoms: _348  and  _349
REMARK  143  A    between atoms: _352  and  _354
REMARK  144  A    between atoms: _354  and  _355
REMARK  145  A    between atoms: _354  and  _357
REMARK  146  A    between atoms: _357  and  _358
REMARK  147  A    between atoms: _361  and  _363
REMARK  148  A    between atoms: _363  and  _364
REMARK  149  A    between atoms: _363  and  _366
REMARK  150  A    between atoms: _366  and  _367
REMARK  151  A    between atoms: _370  and  _372
REMARK  152  A    between atoms: _372  and  _373
REMARK  153  A    between atoms: _372  and  _375
REMARK  154  A    between atoms: _378  and  _380
REMARK  155  A    between atoms: _380  and  _381
REMARK  156  A    between atoms: _380  and  _383
REMARK  157  A    between atoms: _384  and  _385
REMARK  158  A    between atoms: _385  and  _386
REMARK  159  A    between atoms: _386  and  _387
REMARK  160  A    between atoms: _391  and  _393
REMARK  161  A    between atoms: _393  and  _394
REMARK  162  A    between atoms: _393  and  _396
REMARK  163  A    between atoms: _396  and  _397
REMARK  164  A    between atoms: _397  and  _398
REMARK  165  A    between atoms: _400  and  _402
REMARK  166  A    between atoms: _402  and  _403
REMARK  167  A    between atoms: _402  and  _405
REMARK  168  A    between atoms: _405  and  _406
REMARK  169  A    between atoms: _409  and  _411
REMARK  170  A    between atoms: _411  and  _412
REMARK  171  A    between atoms: _414  and  _416
REMARK  172  A    between atoms: _416  and  _417
REMARK  173  A    between atoms: _419  and  _421
REMARK  174  A    between atoms: _421  and  _422
REMARK  175  A    between atoms: _421  and  _424
REMARK  176  A    between atoms: _424  and  _425
REMARK  177  A    between atoms: _428  and  _430
REMARK  178  A    between atoms: _430  and  _431
REMARK  179  A    between atoms: _433  and  _435
REMARK  180  A    between atoms: _435  and  _436
REMARK  181  A    between atoms: _438  and  _440
REMARK  182  A    between atoms: _440  and  _441
REMARK  183  A    between atoms: _440  and  _443
REMARK  184  A    between atoms: _443  and  _444
REMARK  185  A    between atoms: _450  and  _452
REMARK  186  A    between atoms: _452  and  _453
REMARK  187  A    between atoms: _452  and  _455
REMARK  188  A    between atoms: _455  and  _456
REMARK  189  A    between atoms: _459  and  _461
REMARK  190  A    between atoms: _461  and  _462
REMARK  191  A    between atoms: _461  and  _464
REMARK  192  A    between atoms: _467  and  _469
REMARK  193  A    between atoms: _469  and  _470
REMARK  194  A    between atoms: _469  and  _472
REMARK  195  A    between atoms: _472  and  _473
REMARK  196  A    between atoms: _476  and  _478
REMARK  197  A    between atoms: _478  and  _479
REMARK  198  A    between atoms: _478  and  _481
REMARK  199  A    between atoms: _481  and  _482
REMARK  200  A    between atoms: _486  and  _487
REMARK  201  A    between atoms: _492  and  _494
REMARK  202  A    between atoms: _494  and  _495
REMARK  203  A    between atoms: _494  and  _497
REMARK  204  A    between atoms: _500  and  _502
REMARK  205  A    between atoms: _502  and  _503
REMARK  206  A    between atoms: _502  and  _505
REMARK  207  A    between atoms: _505  and  _506
REMARK  208  A    between atoms: _511  and  _513
REMARK  209  A    between atoms: _513  and  _514
REMARK  210  A    between atoms: _513  and  _516
REMARK  211  A    between atoms: _516  and  _517
REMARK  212  A    between atoms: _520  and  _522
REMARK  213  A    between atoms: _522  and  _523
REMARK  214  A    between atoms: _522  and  _525
REMARK  215  A    between atoms: _525  and  _526
REMARK  216  A    between atoms: _529  and  _531
REMARK  217  A    between atoms: _531  and  _532
REMARK  218  A    between atoms: _534  and  _536
REMARK  219  A    between atoms: _536  and  _537
REMARK  220  A    between atoms: _536  and  _539
REMARK  221  A    between atoms: _539  and  _540
REMARK  222  A    between atoms: _540  and  _541
REMARK  223  A    between atoms: _541  and  _542
REMARK  224  A    between atoms: _551  and  _553
REMARK  225  A    between atoms: _553  and  _554
REMARK  226  A    between atoms: _553  and  _556
REMARK  227  A    between atoms: _556  and  _557
REMARK                            x       y       z     vdW  Elec       q    Type
REMARK                         _______ _______ _______ _____ _____    ______ ____
ROOT
ATOM      1  O   HOH     1       9.144  17.603  10.916  0.00  0.00    +0.000 OA
ENDROOT
TORSDOF 0
REMARK  Name = ../refined-set-2016/3a2o/3a2o_pocket.pdb
REMARK  227 active torsions:
REMARK  status: ('A' for Active; 'I' for Inactive)
REMARK    1  A    between atoms: _1  and  _3
REMARK    2  A    between atoms: _3  and  _4
REMARK    3  A    between atoms: _3  and  _6
REMARK    4  A    between atoms: _6  and  _7
REMARK    5  A    between atoms: _7  and  _8
REMARK    6  A    between atoms: _8  and  _9
REMARK    7  A    between atoms: _18  and  _20
REMARK    8  A    between atoms: _20  and  _21
REMARK    9  A    between atoms: _20  and  _23
REMARK   10  A    between atoms: _23  and  _24
REMARK   11  A    between atoms: _27  and  _29
REMARK   12  A    between atoms: _29  and  _30
REMARK   13  A    between atoms: _29  and  _32
REMARK   14  A    between atoms: _32  and  _33
REMARK   15  A    between atoms: _36  and  _38
REMARK   16  A    between atoms: _38  and  _39
REMARK   17  A    between atoms: _38  and  _41
REMARK   18  A    between atoms: _41  and  _42
REMARK   19  A    between atoms: _45  and  _47
REMARK   20  A    between atoms: _47  and  _48
REMARK   21  A    between atoms: _47  and  _50
REMARK   22  A    between atoms: _50  and  _51
REMARK   23  A    between atoms: _54  and  _56
REMARK   24  A    between atoms: _56  and  _57
REMARK   25  A    between atoms: _59  and  _61
REMARK   26  A    between atoms: _61  and  _62
REMARK   27  A    between atoms: _65  and  _67
REMARK   28  A    between atoms: _67  and  _68
REMARK   29  A    between atoms: _67  and  _70
REMARK   30  A    between atoms: _70  and  _71
REMARK   31  A    between atoms: _74  and  _76
REMARK   32  A    between atoms: _76  and  _77
REMARK   33  A    between atoms: _76  and  _79
REMARK   34  A    between atoms: _79  and  _80
REMARK   35  A    between atoms: _83  and  _85
REMARK   36  A    between atoms: _85  and  _86
REMARK   37  A    between atoms: _85  and  _88
REMARK   38  A    between atoms: _88  and  _89
REMARK   39  A    between atoms: _92  and  _94
REMARK   40  A    between atoms: _94  and  _95
REMARK   41  A    between atoms: _94  and  _97
REMARK   42  A    between atoms: _100  and  _102
REMARK   43  A    between atoms: _102  and  _103
REMARK   44  A    between atoms: _102  and  _105
REMARK   45  A    between atoms: _106  and  _107
REMARK   46  A    between atoms: _107  and  _108
REMARK   47  A    between atoms: _108  and  _109
REMARK   48  A    between atoms: _113  and  _115
REMARK   49  A    between atoms: _115  and  _116
REMARK   50  A    between atoms: _115  and  _118
REMARK   51  A    between atoms: _118  and  _119
REMARK   52  A    between atoms: _119  and  _120
REMARK   53  A    between atoms: _122  and  _124
REMARK   54  A    between atoms: _124  and  _125
REMARK   55  A    between atoms: _124  and  _127
REMARK   56  A    between atoms: _127  and  _128
REMARK   57  A    between atoms: _131  and  _133
REMARK   58  A    between atoms: _133  and  _134
REMARK   59  A    between atoms: _136  and  _138
REMARK   60  A    between atoms: _138  and  _139
REMARK   61  A    between atoms: _141  and  _143
REMARK   62  A    between atoms: _143  and  _144
REMARK   63  A    between atoms: _143  and  _146
REMARK   64  A    between atoms: _146  and  _147
REMARK   65  A    between atoms: _150  and  _152
REMARK   66  A    between atoms: _152  and  _153
REMARK   67  A    between atoms: _155  and  _157
REMARK   68  A    between atoms: _157  and  _158
REMARK   69  A    between atoms: _160  and  _162
REMARK   70  A    between atoms: _162  and  _163
REMARK   71  A    between atoms: _162  and  _165
REMARK   72  A    between atoms: _165  and  _166
REMARK   73  A    between atoms: _169  and  _171
REMARK   74  A    between atoms: _171  and  _172
REMARK   75  A    between atoms: _171  and  _174
REMARK   76  A    between atoms: _177  and  _179
REMARK   77  A    between atoms: _179  and  _180
REMARK   78  A    between atoms: _179  and  _182
REMARK   79  A    between atoms: _182  and  _183
REMARK   80  A    between atoms: _187  and  _188
REMARK   81  A    between atoms: _193  and  _195
REMARK   82  A    between atoms: _195  and  _196
REMARK   83  A    between atoms: _195  and  _198
REMARK   84  A    between atoms: _198  and  _199
REMARK   85  A    between atoms: _203  and  _204
REMARK   86  A    between atoms: _209  and  _211
REMARK   87  A    between atoms: _211  and  _212
REMARK   88  A    between atoms: _211  and  _214
REMARK   89  A    between atoms: _217  and  _219
REMARK   90  A    between atoms: _219  and  _220
REMARK   91  A    between atoms: _219  and  _222
REMARK   92  A    between atoms: _222  and  _223
REMARK   93  A    between atoms: _228  and  _230
REMARK   94  A    between atoms: _230  and  _231
REMARK   95  A    between atoms: _230  and  _233
REMARK   96  A    between atoms: _233  and  _234
REMARK   97  A    between atoms: _237  and  _239
REMARK   98  A    between atoms: _239  and  _240
REMARK   99  A    between atoms: _239  and  _242
REMARK  100  A    between atoms: _242  and  _243
REMARK  101  A    between atoms: _246  and  _248
REMARK  102  A    between atoms: _248  and  _249
REMARK  103  A    between atoms: _251  and  _253
REMARK  104  A    between atoms: _253  and  _254
REMARK  105  A    between atoms: _253  and  _256
REMARK  106  A    between atoms: _256  and  _257
REMARK  107  A    between atoms: _257  and  _258
REMARK  108  A    between atoms: _258  and  _259
REMARK  109  A    between atoms: _268  and  _270
REMARK  110  A    between atoms: _270  and  _271
REMARK  111  A    between atoms: _270  and  _273
REMARK  112  A    between atoms: _273  and  _274
REMARK  113  A    between atoms: _279  and  _281
REMARK  114  A    between atoms: _281  and  _282
REMARK  115  A    between atoms: _281  and  _284
REMARK  116  A    between atoms: _284  and  _285
REMARK  117  A    between atoms: _285  and  _286
REMARK  118  A    between atoms: _286  and  _287
REMARK  119  A    between atoms: _296  and  _298
REMARK  120  A    between atoms: _298  and  _299
REMARK  121  A    between atoms: _298  and  _301
REMARK  122  A    between atoms: _301  and  _302
REMARK  123  A    between atoms: _305  and  _307
REMARK  124  A    between atoms: _307  and  _308
REMARK  125  A    between atoms: _307  and  _310
REMARK  126  A    between atoms: _310  and  _311
REMARK  127  A    between atoms: _314  and  _316
REMARK  128  A    between atoms: _316  and  _317
REMARK  129  A    between atoms: _316  and  _319
REMARK  130  A    between atoms: _319  and  _320
REMARK  131  A    between atoms: _323  and  _325
REMARK  132  A    between atoms: _325  and  _326
REMARK  133  A    between atoms: _325  and  _328
REMARK  134  A    between atoms: _328  and  _329
REMARK  135  A    between atoms: _332  and  _334
REMARK  136  A    between atoms: _334  and  _335
REMARK  137  A    between atoms: _337  and  _339
REMARK  138  A    between atoms: _339  and  _340
REMARK  139  A    between atoms: _343  and  _345
REMARK  140  A    between atoms: _345  and  _346
REMARK  141  A    between atoms: _345  and  _348
REMARK  142  A    between atoms: _348  and  _349
REMARK  143  A    between atoms: _352  and  _354
REMARK  144  A    between atoms: _354  and  _355
REMARK  145  A    between atoms: _354  and  _357
REMARK  146  A    between atoms: _357  and  _358
REMARK  147  A    between atoms: _361  and  _363
REMARK  148  A    between atoms: _363  and  _364
REMARK  149  A    between atoms: _363  and  _366
REMARK  150  A    between atoms: _366  and  _367
REMARK  151  A    between atoms: _370  and  _372
REMARK  152  A    between atoms: _372  and  _373
REMARK  153  A    between atoms: _372  and  _375
REMARK  154  A    between atoms: _378  and  _380
REMARK  155  A    between atoms: _380  and  _381
REMARK  156  A    between atoms: _380  and  _383
REMARK  157  A    between atoms: _384  and  _385
REMARK  158  A    between atoms: _385  and  _386
REMARK  159  A    between atoms: _386  and  _387
REMARK  160  A    between atoms: _391  and  _393
REMARK  161  A    between atoms: _393  and  _394
REMARK  162  A    between atoms: _393  and  _396
REMARK  163  A    between atoms: _396  and  _397
REMARK  164  A    between atoms: _397  and  _398
REMARK  165  A    between atoms: _400  and  _402
REMARK  166  A    between atoms: _402  and  _403
REMARK  167  A    between atoms: _402  and  _405
REMARK  168  A    between atoms: _405  and  _406
REMARK  169  A    between atoms: _409  and  _411
REMARK  170  A    between atoms: _411  and  _412
REMARK  171  A    between atoms: _414  and  _416
REMARK  172  A    between atoms: _416  and  _417
REMARK  173  A    between atoms: _419  and  _421
REMARK  174  A    between atoms: _421  and  _422
REMARK  175  A    between atoms: _421  and  _424
REMARK  176  A    between atoms: _424  and  _425
REMARK  177  A    between atoms: _428  and  _430
REMARK  178  A    between atoms: _430  and  _431
REMARK  179  A    between atoms: _433  and  _435
REMARK  180  A    between atoms: _435  and  _436
REMARK  181  A    between atoms: _438  and  _440
REMARK  182  A    between atoms: _440  and  _441
REMARK  183  A    between atoms: _440  and  _443
REMARK  184  A    between atoms: _443  and  _444
REMARK  185  A    between atoms: _450  and  _452
REMARK  186  A    between atoms: _452  and  _453
REMARK  187  A    between atoms: _452  and  _455
REMARK  188  A    between atoms: _455  and  _456
REMARK  189  A    between atoms: _459  and  _461
REMARK  190  A    between atoms: _461  and  _462
REMARK  191  A    between atoms: _461  and  _464
REMARK  192  A    between atoms: _467  and  _469
REMARK  193  A    between atoms: _469  and  _470
REMARK  194  A    between atoms: _469  and  _472
REMARK  195  A    between atoms: _472  and  _473
REMARK  196  A    between atoms: _476  and  _478
REMARK  197  A    between atoms: _478  and  _479
REMARK  198  A    between atoms: _478  and  _481
REMARK  199  A    between atoms: _481  and  _482
REMARK  200  A    between atoms: _486  and  _487
REMARK  201  A    between atoms: _492  and  _494
REMARK  202  A    between atoms: _494  and  _495
REMARK  203  A    between atoms: _494  and  _497
REMARK  204  A    between atoms: _500  and  _502
REMARK  205  A    between atoms: _502  and  _503
REMARK  206  A    between atoms: _502  and  _505
REMARK  207  A    between atoms: _505  and  _506
REMARK  208  A    between atoms: _511  and  _513
REMARK  209  A    between atoms: _513  and  _514
REMARK  210  A    between atoms: _513  and  _516
REMARK  211  A    between atoms: _516  and  _517
REMARK  212  A    between atoms: _520  and  _522
REMARK  213  A    between atoms: _522  and  _523
REMARK  214  A    between atoms: _522  and  _525
REMARK  215  A    between atoms: _525  and  _526
REMARK  216  A    between atoms: _529  and  _531
REMARK  217  A    between atoms: _531  and  _532
REMARK  218  A    between atoms: _534  and  _536
REMARK  219  A    between atoms: _536  and  _537
REMARK  220  A    between atoms: _536  and  _539
REMARK  221  A    between atoms: _539  and  _540
REMARK  222  A    between atoms: _540  and  _541
REMARK  223  A    between atoms: _541  and  _542
REMARK  224  A    between atoms: _551  and  _553
REMARK  225  A    between atoms: _553  and  _554
REMARK  226  A    between atoms: _553  and  _556
REMARK  227  A    between atoms: _556  and  _557
REMARK                            x       y       z     vdW  Elec       q    Type
REMARK                         _______ _______ _______ _____ _____    ______ ____
ROOT
ATOM      1  O   HOH     1       3.893  18.536  17.176  0.00  0.00    +0.000 OA
ENDROOT
TORSDOF 0
REMARK  Name = ../refined-set-2016/3a2o/3a2o_pocket.pdb
REMARK  227 active torsions:
REMARK  status: ('A' for Active; 'I' for Inactive)
REMARK    1  A    between atoms: _1  and  _3
REMARK    2  A    between atoms: _3  and  _4
REMARK    3  A    between atoms: _3  and  _6
REMARK    4  A    between atoms: _6  and  _7
REMARK    5  A    between atoms: _7  and  _8
REMARK    6  A    between atoms: _8  and  _9
REMARK    7  A    between atoms: _18  and  _20
REMARK    8  A    between atoms: _20  and  _21
REMARK    9  A    between atoms: _20  and  _23
REMARK   10  A    between atoms: _23  and  _24
REMARK   11  A    between atoms: _27  and  _29
REMARK   12  A    between atoms: _29  and  _30
REMARK   13  A    between atoms: _29  and  _32
REMARK   14  A    between atoms: _32  and  _33
REMARK   15  A    between atoms: _36  and  _38
REMARK   16  A    between atoms: _38  and  _39
REMARK   17  A    between atoms: _38  and  _41
REMARK   18  A    between atoms: _41  and  _42
REMARK   19  A    between atoms: _45  and  _47
REMARK   20  A    between atoms: _47  and  _48
REMARK   21  A    between atoms: _47  and  _50
REMARK   22  A    between atoms: _50  and  _51
REMARK   23  A    between atoms: _54  and  _56
REMARK   24  A    between atoms: _56  and  _57
REMARK   25  A    between atoms: _59  and  _61
REMARK   26  A    between atoms: _61  and  _62
REMARK   27  A    between atoms: _65  and  _67
REMARK   28  A    between atoms: _67  and  _68
REMARK   29  A    between atoms: _67  and  _70
REMARK   30  A    between atoms: _70  and  _71
REMARK   31  A    between atoms: _74  and  _76
REMARK   32  A    between atoms: _76  and  _77
REMARK   33  A    between atoms: _76  and  _79
REMARK   34  A    between atoms: _79  and  _80
REMARK   35  A    between atoms: _83  and  _85
REMARK   36  A    between atoms: _85  and  _86
REMARK   37  A    between atoms: _85  and  _88
REMARK   38  A    between atoms: _88  and  _89
REMARK   39  A    between atoms: _92  and  _94
REMARK   40  A    between atoms: _94  and  _95
REMARK   41  A    between atoms: _94  and  _97
REMARK   42  A    between atoms: _100  and  _102
REMARK   43  A    between atoms: _102  and  _103
REMARK   44  A    between atoms: _102  and  _105
REMARK   45  A    between atoms: _106  and  _107
REMARK   46  A    between atoms: _107  and  _108
REMARK   47  A    between atoms: _108  and  _109
REMARK   48  A    between atoms: _113  and  _115
REMARK   49  A    between atoms: _115  and  _116
REMARK   50  A    between atoms: _115  and  _118
REMARK   51  A    between atoms: _118  and  _119
REMARK   52  A    between atoms: _119  and  _120
REMARK   53  A    between atoms: _122  and  _124
REMARK   54  A    between atoms: _124  and  _125
REMARK   55  A    between atoms: _124  and  _127
REMARK   56  A    between atoms: _127  and  _128
REMARK   57  A    between atoms: _131  and  _133
REMARK   58  A    between atoms: _133  and  _134
REMARK   59  A    between atoms: _136  and  _138
REMARK   60  A    between atoms: _138  and  _139
REMARK   61  A    between atoms: _141  and  _143
REMARK   62  A    between atoms: _143  and  _144
REMARK   63  A    between atoms: _143  and  _146
REMARK   64  A    between atoms: _146  and  _147
REMARK   65  A    between atoms: _150  and  _152
REMARK   66  A    between atoms: _152  and  _153
REMARK   67  A    between atoms: _155  and  _157
REMARK   68  A    between atoms: _157  and  _158
REMARK   69  A    between atoms: _160  and  _162
REMARK   70  A    between atoms: _162  and  _163
REMARK   71  A    between atoms: _162  and  _165
REMARK   72  A    between atoms: _165  and  _166
REMARK   73  A    between atoms: _169  and  _171
REMARK   74  A    between atoms: _171  and  _172
REMARK   75  A    between atoms: _171  and  _174
REMARK   76  A    between atoms: _177  and  _179
REMARK   77  A    between atoms: _179  and  _180
REMARK   78  A    between atoms: _179  and  _182
REMARK   79  A    between atoms: _182  and  _183
REMARK   80  A    between atoms: _187  and  _188
REMARK   81  A    between atoms: _193  and  _195
REMARK   82  A    between atoms: _195  and  _196
REMARK   83  A    between atoms: _195  and  _198
REMARK   84  A    between atoms: _198  and  _199
REMARK   85  A    between atoms: _203  and  _204
REMARK   86  A    between atoms: _209  and  _211
REMARK   87  A    between atoms: _211  and  _212
REMARK   88  A    between atoms: _211  and  _214
REMARK   89  A    between atoms: _217  and  _219
REMARK   90  A    between atoms: _219  and  _220
REMARK   91  A    between atoms: _219  and  _222
REMARK   92  A    between atoms: _222  and  _223
REMARK   93  A    between atoms: _228  and  _230
REMARK   94  A    between atoms: _230  and  _231
REMARK   95  A    between atoms: _230  and  _233
REMARK   96  A    between atoms: _233  and  _234
REMARK   97  A    between atoms: _237  and  _239
REMARK   98  A    between atoms: _239  and  _240
REMARK   99  A    between atoms: _239  and  _242
REMARK  100  A    between atoms: _242  and  _243
REMARK  101  A    between atoms: _246  and  _248
REMARK  102  A    between atoms: _248  and  _249
REMARK  103  A    between atoms: _251  and  _253
REMARK  104  A    between atoms: _253  and  _254
REMARK  105  A    between atoms: _253  and  _256
REMARK  106  A    between atoms: _256  and  _257
REMARK  107  A    between atoms: _257  and  _258
REMARK  108  A    between atoms: _258  and  _259
REMARK  109  A    between atoms: _268  and  _270
REMARK  110  A    between atoms: _270  and  _271
REMARK  111  A    between atoms: _270  and  _273
REMARK  112  A    between atoms: _273  and  _274
REMARK  113  A    between atoms: _279  and  _281
REMARK  114  A    between atoms: _281  and  _282
REMARK  115  A    between atoms: _281  and  _284
REMARK  116  A    between atoms: _284  and  _285
REMARK  117  A    between atoms: _285  and  _286
REMARK  118  A    between atoms: _286  and  _287
REMARK  119  A    between atoms: _296  and  _298
REMARK  120  A    between atoms: _298  and  _299
REMARK  121  A    between atoms: _298  and  _301
REMARK  122  A    between atoms: _301  and  _302
REMARK  123  A    between atoms: _305  and  _307
REMARK  124  A    between atoms: _307  and  _308
REMARK  125  A    between atoms: _307  and  _310
REMARK  126  A    between atoms: _310  and  _311
REMARK  127  A    between atoms: _314  and  _316
REMARK  128  A    between atoms: _316  and  _317
REMARK  129  A    between atoms: _316  and  _319
REMARK  130  A    between atoms: _319  and  _320
REMARK  131  A    between atoms: _323  and  _325
REMARK  132  A    between atoms: _325  and  _326
REMARK  133  A    between atoms: _325  and  _328
REMARK  134  A    between atoms: _328  and  _329
REMARK  135  A    between atoms: _332  and  _334
REMARK  136  A    between atoms: _334  and  _335
REMARK  137  A    between atoms: _337  and  _339
REMARK  138  A    between atoms: _339  and  _340
REMARK  139  A    between atoms: _343  and  _345
REMARK  140  A    between atoms: _345  and  _346
REMARK  141  A    between atoms: _345  and  _348
REMARK  142  A    between atoms: _348  and  _349
REMARK  143  A    between atoms: _352  and  _354
REMARK  144  A    between atoms: _354  and  _355
REMARK  145  A    between atoms: _354  and  _357
REMARK  146  A    between atoms: _357  and  _358
REMARK  147  A    between atoms: _361  and  _363
REMARK  148  A    between atoms: _363  and  _364
REMARK  149  A    between atoms: _363  and  _366
REMARK  150  A    between atoms: _366  and  _367
REMARK  151  A    between atoms: _370  and  _372
REMARK  152  A    between atoms: _372  and  _373
REMARK  153  A    between atoms: _372  and  _375
REMARK  154  A    between atoms: _378  and  _380
REMARK  155  A    between atoms: _380  and  _381
REMARK  156  A    between atoms: _380  and  _383
REMARK  157  A    between atoms: _384  and  _385
REMARK  158  A    between atoms: _385  and  _386
REMARK  159  A    between atoms: _386  and  _387
REMARK  160  A    between atoms: _391  and  _393
REMARK  161  A    between atoms: _393  and  _394
REMARK  162  A    between atoms: _393  and  _396
REMARK  163  A    between atoms: _396  and  _397
REMARK  164  A    between atoms: _397  and  _398
REMARK  165  A    between atoms: _400  and  _402
REMARK  166  A    between atoms: _402  and  _403
REMARK  167  A    between atoms: _402  and  _405
REMARK  168  A    between atoms: _405  and  _406
REMARK  169  A    between atoms: _409  and  _411
REMARK  170  A    between atoms: _411  and  _412
REMARK  171  A    between atoms: _414  and  _416
REMARK  172  A    between atoms: _416  and  _417
REMARK  173  A    between atoms: _419  and  _421
REMARK  174  A    between atoms: _421  and  _422
REMARK  175  A    between atoms: _421  and  _424
REMARK  176  A    between atoms: _424  and  _425
REMARK  177  A    between atoms: _428  and  _430
REMARK  178  A    between atoms: _430  and  _431
REMARK  179  A    between atoms: _433  and  _435
REMARK  180  A    between atoms: _435  and  _436
REMARK  181  A    between atoms: _438  and  _440
REMARK  182  A    between atoms: _440  and  _441
REMARK  183  A    between atoms: _440  and  _443
REMARK  184  A    between atoms: _443  and  _444
REMARK  185  A    between atoms: _450  and  _452
REMARK  186  A    between atoms: _452  and  _453
REMARK  187  A    between atoms: _452  and  _455
REMARK  188  A    between atoms: _455  and  _456
REMARK  189  A    between atoms: _459  and  _461
REMARK  190  A    between atoms: _461  and  _462
REMARK  191  A    between atoms: _461  and  _464
REMARK  192  A    between atoms: _467  and  _469
REMARK  193  A    between atoms: _469  and  _470
REMARK  194  A    between atoms: _469  and  _472
REMARK  195  A    between atoms: _472  and  _473
REMARK  196  A    between atoms: _476  and  _478
REMARK  197  A    between atoms: _478  and  _479
REMARK  198  A    between atoms: _478  and  _481
REMARK  199  A    between atoms: _481  and  _482
REMARK  200  A    between atoms: _486  and  _487
REMARK  201  A    between atoms: _492  and  _494
REMARK  202  A    between atoms: _494  and  _495
REMARK  203  A    between atoms: _494  and  _497
REMARK  204  A    between atoms: _500  and  _502
REMARK  205  A    between atoms: _502  and  _503
REMARK  206  A    between atoms: _502  and  _505
REMARK  207  A    between atoms: _505  and  _506
REMARK  208  A    between atoms: _511  and  _513
REMARK  209  A    between atoms: _513  and  _514
REMARK  210  A    between atoms: _513  and  _516
REMARK  211  A    between atoms: _516  and  _517
REMARK  212  A    between atoms: _520  and  _522
REMARK  213  A    between atoms: _522  and  _523
REMARK  214  A    between atoms: _522  and  _525
REMARK  215  A    between atoms: _525  and  _526
REMARK  216  A    between atoms: _529  and  _531
REMARK  217  A    between atoms: _531  and  _532
REMARK  218  A    between atoms: _534  and  _536
REMARK  219  A    between atoms: _536  and  _537
REMARK  220  A    between atoms: _536  and  _539
REMARK  221  A    between atoms: _539  and  _540
REMARK  222  A    between atoms: _540  and  _541
REMARK  223  A    between atoms: _541  and  _542
REMARK  224  A    between atoms: _551  and  _553
REMARK  225  A    between atoms: _553  and  _554
REMARK  226  A    between atoms: _553  and  _556
REMARK  227  A    between atoms: _556  and  _557
REMARK                            x       y       z     vdW  Elec       q    Type
REMARK                         _______ _______ _______ _____ _____    ______ ____
ROOT
ATOM      1  O   HOH     1      19.645  16.752   9.563  0.00  0.00    +0.000 OA
ENDROOT
TORSDOF 0
REMARK  Name = ../refined-set-2016/3a2o/3a2o_pocket.pdb
REMARK  227 active torsions:
REMARK  status: ('A' for Active; 'I' for Inactive)
REMARK    1  A    between atoms: _1  and  _3
REMARK    2  A    between atoms: _3  and  _4
REMARK    3  A    between atoms: _3  and  _6
REMARK    4  A    between atoms: _6  and  _7
REMARK    5  A    between atoms: _7  and  _8
REMARK    6  A    between atoms: _8  and  _9
REMARK    7  A    between atoms: _18  and  _20
REMARK    8  A    between atoms: _20  and  _21
REMARK    9  A    between atoms: _20  and  _23
REMARK   10  A    between atoms: _23  and  _24
REMARK   11  A    between atoms: _27  and  _29
REMARK   12  A    between atoms: _29  and  _30
REMARK   13  A    between atoms: _29  and  _32
REMARK   14  A    between atoms: _32  and  _33
REMARK   15  A    between atoms: _36  and  _38
REMARK   16  A    between atoms: _38  and  _39
REMARK   17  A    between atoms: _38  and  _41
REMARK   18  A    between atoms: _41  and  _42
REMARK   19  A    between atoms: _45  and  _47
REMARK   20  A    between atoms: _47  and  _48
REMARK   21  A    between atoms: _47  and  _50
REMARK   22  A    between atoms: _50  and  _51
REMARK   23  A    between atoms: _54  and  _56
REMARK   24  A    between atoms: _56  and  _57
REMARK   25  A    between atoms: _59  and  _61
REMARK   26  A    between atoms: _61  and  _62
REMARK   27  A    between atoms: _65  and  _67
REMARK   28  A    between atoms: _67  and  _68
REMARK   29  A    between atoms: _67  and  _70
REMARK   30  A    between atoms: _70  and  _71
REMARK   31  A    between atoms: _74  and  _76
REMARK   32  A    between atoms: _76  and  _77
REMARK   33  A    between atoms: _76  and  _79
REMARK   34  A    between atoms: _79  and  _80
REMARK   35  A    between atoms: _83  and  _85
REMARK   36  A    between atoms: _85  and  _86
REMARK   37  A    between atoms: _85  and  _88
REMARK   38  A    between atoms: _88  and  _89
REMARK   39  A    between atoms: _92  and  _94
REMARK   40  A    between atoms: _94  and  _95
REMARK   41  A    between atoms: _94  and  _97
REMARK   42  A    between atoms: _100  and  _102
REMARK   43  A    between atoms: _102  and  _103
REMARK   44  A    between atoms: _102  and  _105
REMARK   45  A    between atoms: _106  and  _107
REMARK   46  A    between atoms: _107  and  _108
REMARK   47  A    between atoms: _108  and  _109
REMARK   48  A    between atoms: _113  and  _115
REMARK   49  A    between atoms: _115  and  _116
REMARK   50  A    between atoms: _115  and  _118
REMARK   51  A    between atoms: _118  and  _119
REMARK   52  A    between atoms: _119  and  _120
REMARK   53  A    between atoms: _122  and  _124
REMARK   54  A    between atoms: _124  and  _125
REMARK   55  A    between atoms: _124  and  _127
REMARK   56  A    between atoms: _127  and  _128
REMARK   57  A    between atoms: _131  and  _133
REMARK   58  A    between atoms: _133  and  _134
REMARK   59  A    between atoms: _136  and  _138
REMARK   60  A    between atoms: _138  and  _139
REMARK   61  A    between atoms: _141  and  _143
REMARK   62  A    between atoms: _143  and  _144
REMARK   63  A    between atoms: _143  and  _146
REMARK   64  A    between atoms: _146  and  _147
REMARK   65  A    between atoms: _150  and  _152
REMARK   66  A    between atoms: _152  and  _153
REMARK   67  A    between atoms: _155  and  _157
REMARK   68  A    between atoms: _157  and  _158
REMARK   69  A    between atoms: _160  and  _162
REMARK   70  A    between atoms: _162  and  _163
REMARK   71  A    between atoms: _162  and  _165
REMARK   72  A    between atoms: _165  and  _166
REMARK   73  A    between atoms: _169  and  _171
REMARK   74  A    between atoms: _171  and  _172
REMARK   75  A    between atoms: _171  and  _174
REMARK   76  A    between atoms: _177  and  _179
REMARK   77  A    between atoms: _179  and  _180
REMARK   78  A    between atoms: _179  and  _182
REMARK   79  A    between atoms: _182  and  _183
REMARK   80  A    between atoms: _187  and  _188
REMARK   81  A    between atoms: _193  and  _195
REMARK   82  A    between atoms: _195  and  _196
REMARK   83  A    between atoms: _195  and  _198
REMARK   84  A    between atoms: _198  and  _199
REMARK   85  A    between atoms: _203  and  _204
REMARK   86  A    between atoms: _209  and  _211
REMARK   87  A    between atoms: _211  and  _212
REMARK   88  A    between atoms: _211  and  _214
REMARK   89  A    between atoms: _217  and  _219
REMARK   90  A    between atoms: _219  and  _220
REMARK   91  A    between atoms: _219  and  _222
REMARK   92  A    between atoms: _222  and  _223
REMARK   93  A    between atoms: _228  and  _230
REMARK   94  A    between atoms: _230  and  _231
REMARK   95  A    between atoms: _230  and  _233
REMARK   96  A    between atoms: _233  and  _234
REMARK   97  A    between atoms: _237  and  _239
REMARK   98  A    between atoms: _239  and  _240
REMARK   99  A    between atoms: _239  and  _242
REMARK  100  A    between atoms: _242  and  _243
REMARK  101  A    between atoms: _246  and  _248
REMARK  102  A    between atoms: _248  and  _249
REMARK  103  A    between atoms: _251  and  _253
REMARK  104  A    between atoms: _253  and  _254
REMARK  105  A    between atoms: _253  and  _256
REMARK  106  A    between atoms: _256  and  _257
REMARK  107  A    between atoms: _257  and  _258
REMARK  108  A    between atoms: _258  and  _259
REMARK  109  A    between atoms: _268  and  _270
REMARK  110  A    between atoms: _270  and  _271
REMARK  111  A    between atoms: _270  and  _273
REMARK  112  A    between atoms: _273  and  _274
REMARK  113  A    between atoms: _279  and  _281
REMARK  114  A    between atoms: _281  and  _282
REMARK  115  A    between atoms: _281  and  _284
REMARK  116  A    between atoms: _284  and  _285
REMARK  117  A    between atoms: _285  and  _286
REMARK  118  A    between atoms: _286  and  _287
REMARK  119  A    between atoms: _296  and  _298
REMARK  120  A    between atoms: _298  and  _299
REMARK  121  A    between atoms: _298  and  _301
REMARK  122  A    between atoms: _301  and  _302
REMARK  123  A    between atoms: _305  and  _307
REMARK  124  A    between atoms: _307  and  _308
REMARK  125  A    between atoms: _307  and  _310
REMARK  126  A    between atoms: _310  and  _311
REMARK  127  A    between atoms: _314  and  _316
REMARK  128  A    between atoms: _316  and  _317
REMARK  129  A    between atoms: _316  and  _319
REMARK  130  A    between atoms: _319  and  _320
REMARK  131  A    between atoms: _323  and  _325
REMARK  132  A    between atoms: _325  and  _326
REMARK  133  A    between atoms: _325  and  _328
REMARK  134  A    between atoms: _328  and  _329
REMARK  135  A    between atoms: _332  and  _334
REMARK  136  A    between atoms: _334  and  _335
REMARK  137  A    between atoms: _337  and  _339
REMARK  138  A    between atoms: _339  and  _340
REMARK  139  A    between atoms: _343  and  _345
REMARK  140  A    between atoms: _345  and  _346
REMARK  141  A    between atoms: _345  and  _348
REMARK  142  A    between atoms: _348  and  _349
REMARK  143  A    between atoms: _352  and  _354
REMARK  144  A    between atoms: _354  and  _355
REMARK  145  A    between atoms: _354  and  _357
REMARK  146  A    between atoms: _357  and  _358
REMARK  147  A    between atoms: _361  and  _363
REMARK  148  A    between atoms: _363  and  _364
REMARK  149  A    between atoms: _363  and  _366
REMARK  150  A    between atoms: _366  and  _367
REMARK  151  A    between atoms: _370  and  _372
REMARK  152  A    between atoms: _372  and  _373
REMARK  153  A    between atoms: _372  and  _375
REMARK  154  A    between atoms: _378  and  _380
REMARK  155  A    between atoms: _380  and  _381
REMARK  156  A    between atoms: _380  and  _383
REMARK  157  A    between atoms: _384  and  _385
REMARK  158  A    between atoms: _385  and  _386
REMARK  159  A    between atoms: _386  and  _387
REMARK  160  A    between atoms: _391  and  _393
REMARK  161  A    between atoms: _393  and  _394
REMARK  162  A    between atoms: _393  and  _396
REMARK  163  A    between atoms: _396  and  _397
REMARK  164  A    between atoms: _397  and  _398
REMARK  165  A    between atoms: _400  and  _402
REMARK  166  A    between atoms: _402  and  _403
REMARK  167  A    between atoms: _402  and  _405
REMARK  168  A    between atoms: _405  and  _406
REMARK  169  A    between atoms: _409  and  _411
REMARK  170  A    between atoms: _411  and  _412
REMARK  171  A    between atoms: _414  and  _416
REMARK  172  A    between atoms: _416  and  _417
REMARK  173  A    between atoms: _419  and  _421
REMARK  174  A    between atoms: _421  and  _422
REMARK  175  A    between atoms: _421  and  _424
REMARK  176  A    between atoms: _424  and  _425
REMARK  177  A    between atoms: _428  and  _430
REMARK  178  A    between atoms: _430  and  _431
REMARK  179  A    between atoms: _433  and  _435
REMARK  180  A    between atoms: _435  and  _436
REMARK  181  A    between atoms: _438  and  _440
REMARK  182  A    between atoms: _440  and  _441
REMARK  183  A    between atoms: _440  and  _443
REMARK  184  A    between atoms: _443  and  _444
REMARK  185  A    between atoms: _450  and  _452
REMARK  186  A    between atoms: _452  and  _453
REMARK  187  A    between atoms: _452  and  _455
REMARK  188  A    between atoms: _455  and  _456
REMARK  189  A    between atoms: _459  and  _461
REMARK  190  A    between atoms: _461  and  _462
REMARK  191  A    between atoms: _461  and  _464
REMARK  192  A    between atoms: _467  and  _469
REMARK  193  A    between atoms: _469  and  _470
REMARK  194  A    between atoms: _469  and  _472
REMARK  195  A    between atoms: _472  and  _473
REMARK  196  A    between atoms: _476  and  _478
REMARK  197  A    between atoms: _478  and  _479
REMARK  198  A    between atoms: _478  and  _481
REMARK  199  A    between atoms: _481  and  _482
REMARK  200  A    between atoms: _486  and  _487
REMARK  201  A    between atoms: _492  and  _494
REMARK  202  A    between atoms: _494  and  _495
REMARK  203  A    between atoms: _494  and  _497
REMARK  204  A    between atoms: _500  and  _502
REMARK  205  A    between atoms: _502  and  _503
REMARK  206  A    between atoms: _502  and  _505
REMARK  207  A    between atoms: _505  and  _506
REMARK  208  A    between atoms: _511  and  _513
REMARK  209  A    between atoms: _513  and  _514
REMARK  210  A    between atoms: _513  and  _516
REMARK  211  A    between atoms: _516  and  _517
REMARK  212  A    between atoms: _520  and  _522
REMARK  213  A    between atoms: _522  and  _523
REMARK  214  A    between atoms: _522  and  _525
REMARK  215  A    between atoms: _525  and  _526
REMARK  216  A    between atoms: _529  and  _531
REMARK  217  A    between atoms: _531  and  _532
REMARK  218  A    between atoms: _534  and  _536
REMARK  219  A    between atoms: _536  and  _537
REMARK  220  A    between atoms: _536  and  _539
REMARK  221  A    between atoms: _539  and  _540
REMARK  222  A    between atoms: _540  and  _541
REMARK  223  A    between atoms: _541  and  _542
REMARK  224  A    between atoms: _551  and  _553
REMARK  225  A    between atoms: _553  and  _554
REMARK  226  A    between atoms: _553  and  _556
REMARK  227  A    between atoms: _556  and  _557
REMARK                            x       y       z     vdW  Elec       q    Type
REMARK                         _______ _______ _______ _____ _____    ______ ____
ROOT
ATOM      1  O   HOH     1      18.514  20.509  16.977  0.00  0.00    +0.000 OA
ENDROOT
TORSDOF 0
REMARK  Name = ../refined-set-2016/3a2o/3a2o_pocket.pdb
REMARK  227 active torsions:
REMARK  status: ('A' for Active; 'I' for Inactive)
REMARK    1  A    between atoms: _1  and  _3
REMARK    2  A    between atoms: _3  and  _4
REMARK    3  A    between atoms: _3  and  _6
REMARK    4  A    between atoms: _6  and  _7
REMARK    5  A    between atoms: _7  and  _8
REMARK    6  A    between atoms: _8  and  _9
REMARK    7  A    between atoms: _18  and  _20
REMARK    8  A    between atoms: _20  and  _21
REMARK    9  A    between atoms: _20  and  _23
REMARK   10  A    between atoms: _23  and  _24
REMARK   11  A    between atoms: _27  and  _29
REMARK   12  A    between atoms: _29  and  _30
REMARK   13  A    between atoms: _29  and  _32
REMARK   14  A    between atoms: _32  and  _33
REMARK   15  A    between atoms: _36  and  _38
REMARK   16  A    between atoms: _38  and  _39
REMARK   17  A    between atoms: _38  and  _41
REMARK   18  A    between atoms: _41  and  _42
REMARK   19  A    between atoms: _45  and  _47
REMARK   20  A    between atoms: _47  and  _48
REMARK   21  A    between atoms: _47  and  _50
REMARK   22  A    between atoms: _50  and  _51
REMARK   23  A    between atoms: _54  and  _56
REMARK   24  A    between atoms: _56  and  _57
REMARK   25  A    between atoms: _59  and  _61
REMARK   26  A    between atoms: _61  and  _62
REMARK   27  A    between atoms: _65  and  _67
REMARK   28  A    between atoms: _67  and  _68
REMARK   29  A    between atoms: _67  and  _70
REMARK   30  A    between atoms: _70  and  _71
REMARK   31  A    between atoms: _74  and  _76
REMARK   32  A    between atoms: _76  and  _77
REMARK   33  A    between atoms: _76  and  _79
REMARK   34  A    between atoms: _79  and  _80
REMARK   35  A    between atoms: _83  and  _85
REMARK   36  A    between atoms: _85  and  _86
REMARK   37  A    between atoms: _85  and  _88
REMARK   38  A    between atoms: _88  and  _89
REMARK   39  A    between atoms: _92  and  _94
REMARK   40  A    between atoms: _94  and  _95
REMARK   41  A    between atoms: _94  and  _97
REMARK   42  A    between atoms: _100  and  _102
REMARK   43  A    between atoms: _102  and  _103
REMARK   44  A    between atoms: _102  and  _105
REMARK   45  A    between atoms: _106  and  _107
REMARK   46  A    between atoms: _107  and  _108
REMARK   47  A    between atoms: _108  and  _109
REMARK   48  A    between atoms: _113  and  _115
REMARK   49  A    between atoms: _115  and  _116
REMARK   50  A    between atoms: _115  and  _118
REMARK   51  A    between atoms: _118  and  _119
REMARK   52  A    between atoms: _119  and  _120
REMARK   53  A    between atoms: _122  and  _124
REMARK   54  A    between atoms: _124  and  _125
REMARK   55  A    between atoms: _124  and  _127
REMARK   56  A    between atoms: _127  and  _128
REMARK   57  A    between atoms: _131  and  _133
REMARK   58  A    between atoms: _133  and  _134
REMARK   59  A    between atoms: _136  and  _138
REMARK   60  A    between atoms: _138  and  _139
REMARK   61  A    between atoms: _141  and  _143
REMARK   62  A    between atoms: _143  and  _144
REMARK   63  A    between atoms: _143  and  _146
REMARK   64  A    between atoms: _146  and  _147
REMARK   65  A    between atoms: _150  and  _152
REMARK   66  A    between atoms: _152  and  _153
REMARK   67  A    between atoms: _155  and  _157
REMARK   68  A    between atoms: _157  and  _158
REMARK   69  A    between atoms: _160  and  _162
REMARK   70  A    between atoms: _162  and  _163
REMARK   71  A    between atoms: _162  and  _165
REMARK   72  A    between atoms: _165  and  _166
REMARK   73  A    between atoms: _169  and  _171
REMARK   74  A    between atoms: _171  and  _172
REMARK   75  A    between atoms: _171  and  _174
REMARK   76  A    between atoms: _177  and  _179
REMARK   77  A    between atoms: _179  and  _180
REMARK   78  A    between atoms: _179  and  _182
REMARK   79  A    between atoms: _182  and  _183
REMARK   80  A    between atoms: _187  and  _188
REMARK   81  A    between atoms: _193  and  _195
REMARK   82  A    between atoms: _195  and  _196
REMARK   83  A    between atoms: _195  and  _198
REMARK   84  A    between atoms: _198  and  _199
REMARK   85  A    between atoms: _203  and  _204
REMARK   86  A    between atoms: _209  and  _211
REMARK   87  A    between atoms: _211  and  _212
REMARK   88  A    between atoms: _211  and  _214
REMARK   89  A    between atoms: _217  and  _219
REMARK   90  A    between atoms: _219  and  _220
REMARK   91  A    between atoms: _219  and  _222
REMARK   92  A    between atoms: _222  and  _223
REMARK   93  A    between atoms: _228  and  _230
REMARK   94  A    between atoms: _230  and  _231
REMARK   95  A    between atoms: _230  and  _233
REMARK   96  A    between atoms: _233  and  _234
REMARK   97  A    between atoms: _237  and  _239
REMARK   98  A    between atoms: _239  and  _240
REMARK   99  A    between atoms: _239  and  _242
REMARK  100  A    between atoms: _242  and  _243
REMARK  101  A    between atoms: _246  and  _248
REMARK  102  A    between atoms: _248  and  _249
REMARK  103  A    between atoms: _251  and  _253
REMARK  104  A    between atoms: _253  and  _254
REMARK  105  A    between atoms: _253  and  _256
REMARK  106  A    between atoms: _256  and  _257
REMARK  107  A    between atoms: _257  and  _258
REMARK  108  A    between atoms: _258  and  _259
REMARK  109  A    between atoms: _268  and  _270
REMARK  110  A    between atoms: _270  and  _271
REMARK  111  A    between atoms: _270  and  _273
REMARK  112  A    between atoms: _273  and  _274
REMARK  113  A    between atoms: _279  and  _281
REMARK  114  A    between atoms: _281  and  _282
REMARK  115  A    between atoms: _281  and  _284
REMARK  116  A    between atoms: _284  and  _285
REMARK  117  A    between atoms: _285  and  _286
REMARK  118  A    between atoms: _286  and  _287
REMARK  119  A    between atoms: _296  and  _298
REMARK  120  A    between atoms: _298  and  _299
REMARK  121  A    between atoms: _298  and  _301
REMARK  122  A    between atoms: _301  and  _302
REMARK  123  A    between atoms: _305  and  _307
REMARK  124  A    between atoms: _307  and  _308
REMARK  125  A    between atoms: _307  and  _310
REMARK  126  A    between atoms: _310  and  _311
REMARK  127  A    between atoms: _314  and  _316
REMARK  128  A    between atoms: _316  and  _317
REMARK  129  A    between atoms: _316  and  _319
REMARK  130  A    between atoms: _319  and  _320
REMARK  131  A    between atoms: _323  and  _325
REMARK  132  A    between atoms: _325  and  _326
REMARK  133  A    between atoms: _325  and  _328
REMARK  134  A    between atoms: _328  and  _329
REMARK  135  A    between atoms: _332  and  _334
REMARK  136  A    between atoms: _334  and  _335
REMARK  137  A    between atoms: _337  and  _339
REMARK  138  A    between atoms: _339  and  _340
REMARK  139  A    between atoms: _343  and  _345
REMARK  140  A    between atoms: _345  and  _346
REMARK  141  A    between atoms: _345  and  _348
REMARK  142  A    between atoms: _348  and  _349
REMARK  143  A    between atoms: _352  and  _354
REMARK  144  A    between atoms: _354  and  _355
REMARK  145  A    between atoms: _354  and  _357
REMARK  146  A    between atoms: _357  and  _358
REMARK  147  A    between atoms: _361  and  _363
REMARK  148  A    between atoms: _363  and  _364
REMARK  149  A    between atoms: _363  and  _366
REMARK  150  A    between atoms: _366  and  _367
REMARK  151  A    between atoms: _370  and  _372
REMARK  152  A    between atoms: _372  and  _373
REMARK  153  A    between atoms: _372  and  _375
REMARK  154  A    between atoms: _378  and  _380
REMARK  155  A    between atoms: _380  and  _381
REMARK  156  A    between atoms: _380  and  _383
REMARK  157  A    between atoms: _384  and  _385
REMARK  158  A    between atoms: _385  and  _386
REMARK  159  A    between atoms: _386  and  _387
REMARK  160  A    between atoms: _391  and  _393
REMARK  161  A    between atoms: _393  and  _394
REMARK  162  A    between atoms: _393  and  _396
REMARK  163  A    between atoms: _396  and  _397
REMARK  164  A    between atoms: _397  and  _398
REMARK  165  A    between atoms: _400  and  _402
REMARK  166  A    between atoms: _402  and  _403
REMARK  167  A    between atoms: _402  and  _405
REMARK  168  A    between atoms: _405  and  _406
REMARK  169  A    between atoms: _409  and  _411
REMARK  170  A    between atoms: _411  and  _412
REMARK  171  A    between atoms: _414  and  _416
REMARK  172  A    between atoms: _416  and  _417
REMARK  173  A    between atoms: _419  and  _421
REMARK  174  A    between atoms: _421  and  _422
REMARK  175  A    between atoms: _421  and  _424
REMARK  176  A    between atoms: _424  and  _425
REMARK  177  A    between atoms: _428  and  _430
REMARK  178  A    between atoms: _430  and  _431
REMARK  179  A    between atoms: _433  and  _435
REMARK  180  A    between atoms: _435  and  _436
REMARK  181  A    between atoms: _438  and  _440
REMARK  182  A    between atoms: _440  and  _441
REMARK  183  A    between atoms: _440  and  _443
REMARK  184  A    between atoms: _443  and  _444
REMARK  185  A    between atoms: _450  and  _452
REMARK  186  A    between atoms: _452  and  _453
REMARK  187  A    between atoms: _452  and  _455
REMARK  188  A    between atoms: _455  and  _456
REMARK  189  A    between atoms: _459  and  _461
REMARK  190  A    between atoms: _461  and  _462
REMARK  191  A    between atoms: _461  and  _464
REMARK  192  A    between atoms: _467  and  _469
REMARK  193  A    between atoms: _469  and  _470
REMARK  194  A    between atoms: _469  and  _472
REMARK  195  A    between atoms: _472  and  _473
REMARK  196  A    between atoms: _476  and  _478
REMARK  197  A    between atoms: _478  and  _479
REMARK  198  A    between atoms: _478  and  _481
REMARK  199  A    between atoms: _481  and  _482
REMARK  200  A    between atoms: _486  and  _487
REMARK  201  A    between atoms: _492  and  _494
REMARK  202  A    between atoms: _494  and  _495
REMARK  203  A    between atoms: _494  and  _497
REMARK  204  A    between atoms: _500  and  _502
REMARK  205  A    between atoms: _502  and  _503
REMARK  206  A    between atoms: _502  and  _505
REMARK  207  A    between atoms: _505  and  _506
REMARK  208  A    between atoms: _511  and  _513
REMARK  209  A    between atoms: _513  and  _514
REMARK  210  A    between atoms: _513  and  _516
REMARK  211  A    between atoms: _516  and  _517
REMARK  212  A    between atoms: _520  and  _522
REMARK  213  A    between atoms: _522  and  _523
REMARK  214  A    between atoms: _522  and  _525
REMARK  215  A    between atoms: _525  and  _526
REMARK  216  A    between atoms: _529  and  _531
REMARK  217  A    between atoms: _531  and  _532
REMARK  218  A    between atoms: _534  and  _536
REMARK  219  A    between atoms: _536  and  _537
REMARK  220  A    between atoms: _536  and  _539
REMARK  221  A    between atoms: _539  and  _540
REMARK  222  A    between atoms: _540  and  _541
REMARK  223  A    between atoms: _541  and  _542
REMARK  224  A    between atoms: _551  and  _553
REMARK  225  A    between atoms: _553  and  _554
REMARK  226  A    between atoms: _553  and  _556
REMARK  227  A    between atoms: _556  and  _557
REMARK                            x       y       z     vdW  Elec       q    Type
REMARK                         _______ _______ _______ _____ _____    ______ ____
ROOT
ATOM      1  O   HOH     1      10.432  11.174  15.068  0.00  0.00    +0.000 OA
ENDROOT
TORSDOF 0
REMARK  Name = ../refined-set-2016/3a2o/3a2o_pocket.pdb
REMARK  227 active torsions:
REMARK  status: ('A' for Active; 'I' for Inactive)
REMARK    1  A    between atoms: _1  and  _3
REMARK    2  A    between atoms: _3  and  _4
REMARK    3  A    between atoms: _3  and  _6
REMARK    4  A    between atoms: _6  and  _7
REMARK    5  A    between atoms: _7  and  _8
REMARK    6  A    between atoms: _8  and  _9
REMARK    7  A    between atoms: _18  and  _20
REMARK    8  A    between atoms: _20  and  _21
REMARK    9  A    between atoms: _20  and  _23
REMARK   10  A    between atoms: _23  and  _24
REMARK   11  A    between atoms: _27  and  _29
REMARK   12  A    between atoms: _29  and  _30
REMARK   13  A    between atoms: _29  and  _32
REMARK   14  A    between atoms: _32  and  _33
REMARK   15  A    between atoms: _36  and  _38
REMARK   16  A    between atoms: _38  and  _39
REMARK   17  A    between atoms: _38  and  _41
REMARK   18  A    between atoms: _41  and  _42
REMARK   19  A    between atoms: _45  and  _47
REMARK   20  A    between atoms: _47  and  _48
REMARK   21  A    between atoms: _47  and  _50
REMARK   22  A    between atoms: _50  and  _51
REMARK   23  A    between atoms: _54  and  _56
REMARK   24  A    between atoms: _56  and  _57
REMARK   25  A    between atoms: _59  and  _61
REMARK   26  A    between atoms: _61  and  _62
REMARK   27  A    between atoms: _65  and  _67
REMARK   28  A    between atoms: _67  and  _68
REMARK   29  A    between atoms: _67  and  _70
REMARK   30  A    between atoms: _70  and  _71
REMARK   31  A    between atoms: _74  and  _76
REMARK   32  A    between atoms: _76  and  _77
REMARK   33  A    between atoms: _76  and  _79
REMARK   34  A    between atoms: _79  and  _80
REMARK   35  A    between atoms: _83  and  _85
REMARK   36  A    between atoms: _85  and  _86
REMARK   37  A    between atoms: _85  and  _88
REMARK   38  A    between atoms: _88  and  _89
REMARK   39  A    between atoms: _92  and  _94
REMARK   40  A    between atoms: _94  and  _95
REMARK   41  A    between atoms: _94  and  _97
REMARK   42  A    between atoms: _100  and  _102
REMARK   43  A    between atoms: _102  and  _103
REMARK   44  A    between atoms: _102  and  _105
REMARK   45  A    between atoms: _106  and  _107
REMARK   46  A    between atoms: _107  and  _108
REMARK   47  A    between atoms: _108  and  _109
REMARK   48  A    between atoms: _113  and  _115
REMARK   49  A    between atoms: _115  and  _116
REMARK   50  A    between atoms: _115  and  _118
REMARK   51  A    between atoms: _118  and  _119
REMARK   52  A    between atoms: _119  and  _120
REMARK   53  A    between atoms: _122  and  _124
REMARK   54  A    between atoms: _124  and  _125
REMARK   55  A    between atoms: _124  and  _127
REMARK   56  A    between atoms: _127  and  _128
REMARK   57  A    between atoms: _131  and  _133
REMARK   58  A    between atoms: _133  and  _134
REMARK   59  A    between atoms: _136  and  _138
REMARK   60  A    between atoms: _138  and  _139
REMARK   61  A    between atoms: _141  and  _143
REMARK   62  A    between atoms: _143  and  _144
REMARK   63  A    between atoms: _143  and  _146
REMARK   64  A    between atoms: _146  and  _147
REMARK   65  A    between atoms: _150  and  _152
REMARK   66  A    between atoms: _152  and  _153
REMARK   67  A    between atoms: _155  and  _157
REMARK   68  A    between atoms: _157  and  _158
REMARK   69  A    between atoms: _160  and  _162
REMARK   70  A    between atoms: _162  and  _163
REMARK   71  A    between atoms: _162  and  _165
REMARK   72  A    between atoms: _165  and  _166
REMARK   73  A    between atoms: _169  and  _171
REMARK   74  A    between atoms: _171  and  _172
REMARK   75  A    between atoms: _171  and  _174
REMARK   76  A    between atoms: _177  and  _179
REMARK   77  A    between atoms: _179  and  _180
REMARK   78  A    between atoms: _179  and  _182
REMARK   79  A    between atoms: _182  and  _183
REMARK   80  A    between atoms: _187  and  _188
REMARK   81  A    between atoms: _193  and  _195
REMARK   82  A    between atoms: _195  and  _196
REMARK   83  A    between atoms: _195  and  _198
REMARK   84  A    between atoms: _198  and  _199
REMARK   85  A    between atoms: _203  and  _204
REMARK   86  A    between atoms: _209  and  _211
REMARK   87  A    between atoms: _211  and  _212
REMARK   88  A    between atoms: _211  and  _214
REMARK   89  A    between atoms: _217  and  _219
REMARK   90  A    between atoms: _219  and  _220
REMARK   91  A    between atoms: _219  and  _222
REMARK   92  A    between atoms: _222  and  _223
REMARK   93  A    between atoms: _228  and  _230
REMARK   94  A    between atoms: _230  and  _231
REMARK   95  A    between atoms: _230  and  _233
REMARK   96  A    between atoms: _233  and  _234
REMARK   97  A    between atoms: _237  and  _239
REMARK   98  A    between atoms: _239  and  _240
REMARK   99  A    between atoms: _239  and  _242
REMARK  100  A    between atoms: _242  and  _243
REMARK  101  A    between atoms: _246  and  _248
REMARK  102  A    between atoms: _248  and  _249
REMARK  103  A    between atoms: _251  and  _253
REMARK  104  A    between atoms: _253  and  _254
REMARK  105  A    between atoms: _253  and  _256
REMARK  106  A    between atoms: _256  and  _257
REMARK  107  A    between atoms: _257  and  _258
REMARK  108  A    between atoms: _258  and  _259
REMARK  109  A    between atoms: _268  and  _270
REMARK  110  A    between atoms: _270  and  _271
REMARK  111  A    between atoms: _270  and  _273
REMARK  112  A    between atoms: _273  and  _274
REMARK  113  A    between atoms: _279  and  _281
REMARK  114  A    between atoms: _281  and  _282
REMARK  115  A    between atoms: _281  and  _284
REMARK  116  A    between atoms: _284  and  _285
REMARK  117  A    between atoms: _285  and  _286
REMARK  118  A    between atoms: _286  and  _287
REMARK  119  A    between atoms: _296  and  _298
REMARK  120  A    between atoms: _298  and  _299
REMARK  121  A    between atoms: _298  and  _301
REMARK  122  A    between atoms: _301  and  _302
REMARK  123  A    between atoms: _305  and  _307
REMARK  124  A    between atoms: _307  and  _308
REMARK  125  A    between atoms: _307  and  _310
REMARK  126  A    between atoms: _310  and  _311
REMARK  127  A    between atoms: _314  and  _316
REMARK  128  A    between atoms: _316  and  _317
REMARK  129  A    between atoms: _316  and  _319
REMARK  130  A    between atoms: _319  and  _320
REMARK  131  A    between atoms: _323  and  _325
REMARK  132  A    between atoms: _325  and  _326
REMARK  133  A    between atoms: _325  and  _328
REMARK  134  A    between atoms: _328  and  _329
REMARK  135  A    between atoms: _332  and  _334
REMARK  136  A    between atoms: _334  and  _335
REMARK  137  A    between atoms: _337  and  _339
REMARK  138  A    between atoms: _339  and  _340
REMARK  139  A    between atoms: _343  and  _345
REMARK  140  A    between atoms: _345  and  _346
REMARK  141  A    between atoms: _345  and  _348
REMARK  142  A    between atoms: _348  and  _349
REMARK  143  A    between atoms: _352  and  _354
REMARK  144  A    between atoms: _354  and  _355
REMARK  145  A    between atoms: _354  and  _357
REMARK  146  A    between atoms: _357  and  _358
REMARK  147  A    between atoms: _361  and  _363
REMARK  148  A    between atoms: _363  and  _364
REMARK  149  A    between atoms: _363  and  _366
REMARK  150  A    between atoms: _366  and  _367
REMARK  151  A    between atoms: _370  and  _372
REMARK  152  A    between atoms: _372  and  _373
REMARK  153  A    between atoms: _372  and  _375
REMARK  154  A    between atoms: _378  and  _380
REMARK  155  A    between atoms: _380  and  _381
REMARK  156  A    between atoms: _380  and  _383
REMARK  157  A    between atoms: _384  and  _385
REMARK  158  A    between atoms: _385  and  _386
REMARK  159  A    between atoms: _386  and  _387
REMARK  160  A    between atoms: _391  and  _393
REMARK  161  A    between atoms: _393  and  _394
REMARK  162  A    between atoms: _393  and  _396
REMARK  163  A    between atoms: _396  and  _397
REMARK  164  A    between atoms: _397  and  _398
REMARK  165  A    between atoms: _400  and  _402
REMARK  166  A    between atoms: _402  and  _403
REMARK  167  A    between atoms: _402  and  _405
REMARK  168  A    between atoms: _405  and  _406
REMARK  169  A    between atoms: _409  and  _411
REMARK  170  A    between atoms: _411  and  _412
REMARK  171  A    between atoms: _414  and  _416
REMARK  172  A    between atoms: _416  and  _417
REMARK  173  A    between atoms: _419  and  _421
REMARK  174  A    between atoms: _421  and  _422
REMARK  175  A    between atoms: _421  and  _424
REMARK  176  A    between atoms: _424  and  _425
REMARK  177  A    between atoms: _428  and  _430
REMARK  178  A    between atoms: _430  and  _431
REMARK  179  A    between atoms: _433  and  _435
REMARK  180  A    between atoms: _435  and  _436
REMARK  181  A    between atoms: _438  and  _440
REMARK  182  A    between atoms: _440  and  _441
REMARK  183  A    between atoms: _440  and  _443
REMARK  184  A    between atoms: _443  and  _444
REMARK  185  A    between atoms: _450  and  _452
REMARK  186  A    between atoms: _452  and  _453
REMARK  187  A    between atoms: _452  and  _455
REMARK  188  A    between atoms: _455  and  _456
REMARK  189  A    between atoms: _459  and  _461
REMARK  190  A    between atoms: _461  and  _462
REMARK  191  A    between atoms: _461  and  _464
REMARK  192  A    between atoms: _467  and  _469
REMARK  193  A    between atoms: _469  and  _470
REMARK  194  A    between atoms: _469  and  _472
REMARK  195  A    between atoms: _472  and  _473
REMARK  196  A    between atoms: _476  and  _478
REMARK  197  A    between atoms: _478  and  _479
REMARK  198  A    between atoms: _478  and  _481
REMARK  199  A    between atoms: _481  and  _482
REMARK  200  A    between atoms: _486  and  _487
REMARK  201  A    between atoms: _492  and  _494
REMARK  202  A    between atoms: _494  and  _495
REMARK  203  A    between atoms: _494  and  _497
REMARK  204  A    between atoms: _500  and  _502
REMARK  205  A    between atoms: _502  and  _503
REMARK  206  A    between atoms: _502  and  _505
REMARK  207  A    between atoms: _505  and  _506
REMARK  208  A    between atoms: _511  and  _513
REMARK  209  A    between atoms: _513  and  _514
REMARK  210  A    between atoms: _513  and  _516
REMARK  211  A    between atoms: _516  and  _517
REMARK  212  A    between atoms: _520  and  _522
REMARK  213  A    between atoms: _522  and  _523
REMARK  214  A    between atoms: _522  and  _525
REMARK  215  A    between atoms: _525  and  _526
REMARK  216  A    between atoms: _529  and  _531
REMARK  217  A    between atoms: _531  and  _532
REMARK  218  A    between atoms: _534  and  _536
REMARK  219  A    between atoms: _536  and  _537
REMARK  220  A    between atoms: _536  and  _539
REMARK  221  A    between atoms: _539  and  _540
REMARK  222  A    between atoms: _540  and  _541
REMARK  223  A    between atoms: _541  and  _542
REMARK  224  A    between atoms: _551  and  _553
REMARK  225  A    between atoms: _553  and  _554
REMARK  226  A    between atoms: _553  and  _556
REMARK  227  A    between atoms: _556  and  _557
REMARK                            x       y       z     vdW  Elec       q    Type
REMARK                         _______ _______ _______ _____ _____    ______ ____
ROOT
ATOM      1  O   HOH     1       9.200  15.999  27.097  0.00  0.00    +0.000 OA
ENDROOT
TORSDOF 0
