REMARK  Name = ../refined-set-2016/4p5d/4p5d_pocket.pdb
REMARK  204 active torsions:
REMARK  status: ('A' for Active; 'I' for Inactive)
REMARK    1  A    between atoms: _1  and  _3
REMARK    2  A    between atoms: _3  and  _4
REMARK    3  A    between atoms: _3  and  _6
REMARK    4  A    between atoms: _6  and  _7
REMARK    5  A    between atoms: _12  and  _13
REMARK    6  A    between atoms: _15  and  _17
REMARK    7  A    between atoms: _17  and  _18
REMARK    8  A    between atoms: _17  and  _20
REMARK    9  A    between atoms: _20  and  _21
REMARK   10  A    between atoms: _27  and  _29
REMARK   11  A    between atoms: _29  and  _30
REMARK   12  A    between atoms: _29  and  _32
REMARK   13  A    between atoms: _34  and  _36
REMARK   14  A    between atoms: _36  and  _37
REMARK   15  A    between atoms: _39  and  _41
REMARK   16  A    between atoms: _41  and  _42
REMARK   17  A    between atoms: _41  and  _44
REMARK   18  A    between atoms: _44  and  _45
REMARK   19  A    between atoms: _47  and  _49
REMARK   20  A    between atoms: _49  and  _50
REMARK   21  A    between atoms: _49  and  _52
REMARK   22  A    between atoms: _52  and  _53
REMARK   23  A    between atoms: _56  and  _58
REMARK   24  A    between atoms: _58  and  _59
REMARK   25  A    between atoms: _58  and  _61
REMARK   26  A    between atoms: _61  and  _62
REMARK   27  A    between atoms: _62  and  _63
REMARK   28  A    between atoms: _63  and  _64
REMARK   29  A    between atoms: _73  and  _75
REMARK   30  A    between atoms: _75  and  _76
REMARK   31  A    between atoms: _78  and  _80
REMARK   32  A    between atoms: _80  and  _81
REMARK   33  A    between atoms: _83  and  _85
REMARK   34  A    between atoms: _85  and  _86
REMARK   35  A    between atoms: _85  and  _88
REMARK   36  A    between atoms: _88  and  _89
REMARK   37  A    between atoms: _89  and  _90
REMARK   38  A    between atoms: _90  and  _91
REMARK   39  A    between atoms: _100  and  _102
REMARK   40  A    between atoms: _102  and  _103
REMARK   41  A    between atoms: _102  and  _105
REMARK   42  A    between atoms: _105  and  _106
REMARK   43  A    between atoms: _111  and  _112
REMARK   44  A    between atoms: _114  and  _116
REMARK   45  A    between atoms: _116  and  _117
REMARK   46  A    between atoms: _116  and  _119
REMARK   47  A    between atoms: _119  and  _120
REMARK   48  A    between atoms: _123  and  _125
REMARK   49  A    between atoms: _125  and  _126
REMARK   50  A    between atoms: _125  and  _128
REMARK   51  A    between atoms: _128  and  _129
REMARK   52  A    between atoms: _129  and  _130
REMARK   53  A    between atoms: _133  and  _135
REMARK   54  A    between atoms: _135  and  _136
REMARK   55  A    between atoms: _135  and  _138
REMARK   56  A    between atoms: _138  and  _139
REMARK   57  A    between atoms: _144  and  _146
REMARK   58  A    between atoms: _146  and  _147
REMARK   59  A    between atoms: _146  and  _149
REMARK   60  A    between atoms: _152  and  _154
REMARK   61  A    between atoms: _154  and  _155
REMARK   62  A    between atoms: _154  and  _157
REMARK   63  A    between atoms: _157  and  _158
REMARK   64  A    between atoms: _161  and  _163
REMARK   65  A    between atoms: _163  and  _164
REMARK   66  A    between atoms: _163  and  _166
REMARK   67  A    between atoms: _166  and  _167
REMARK   68  A    between atoms: _167  and  _168
REMARK   69  A    between atoms: _172  and  _173
REMARK   70  A    between atoms: _178  and  _180
REMARK   71  A    between atoms: _180  and  _181
REMARK   72  A    between atoms: _180  and  _183
REMARK   73  A    between atoms: _183  and  _184
REMARK   74  A    between atoms: _187  and  _189
REMARK   75  A    between atoms: _189  and  _190
REMARK   76  A    between atoms: _192  and  _194
REMARK   77  A    between atoms: _194  and  _195
REMARK   78  A    between atoms: _194  and  _197
REMARK   79  A    between atoms: _197  and  _198
REMARK   80  A    between atoms: _198  and  _199
REMARK   81  A    between atoms: _202  and  _204
REMARK   82  A    between atoms: _204  and  _205
REMARK   83  A    between atoms: _204  and  _207
REMARK   84  A    between atoms: _207  and  _208
REMARK   85  A    between atoms: _208  and  _209
REMARK   86  A    between atoms: _212  and  _214
REMARK   87  A    between atoms: _214  and  _215
REMARK   88  A    between atoms: _218  and  _220
REMARK   89  A    between atoms: _220  and  _221
REMARK   90  A    between atoms: _224  and  _226
REMARK   91  A    between atoms: _226  and  _227
REMARK   92  A    between atoms: _229  and  _231
REMARK   93  A    between atoms: _231  and  _232
REMARK   94  A    between atoms: _234  and  _236
REMARK   95  A    between atoms: _236  and  _237
REMARK   96  A    between atoms: _236  and  _239
REMARK   97  A    between atoms: _239  and  _240
REMARK   98  A    between atoms: _243  and  _245
REMARK   99  A    between atoms: _245  and  _246
REMARK  100  A    between atoms: _245  and  _248
REMARK  101  A    between atoms: _248  and  _249
REMARK  102  A    between atoms: _255  and  _257
REMARK  103  A    between atoms: _257  and  _258
REMARK  104  A    between atoms: _257  and  _260
REMARK  105  A    between atoms: _260  and  _261
REMARK  106  A    between atoms: _264  and  _266
REMARK  107  A    between atoms: _266  and  _267
REMARK  108  A    between atoms: _266  and  _269
REMARK  109  A    between atoms: _269  and  _270
REMARK  110  A    between atoms: _275  and  _277
REMARK  111  A    between atoms: _277  and  _278
REMARK  112  A    between atoms: _277  and  _280
REMARK  113  A    between atoms: _280  and  _281
REMARK  114  A    between atoms: _281  and  _282
REMARK  115  A    between atoms: _287  and  _289
REMARK  116  A    between atoms: _289  and  _290
REMARK  117  A    between atoms: _289  and  _292
REMARK  118  A    between atoms: _292  and  _293
REMARK  119  A    between atoms: _298  and  _300
REMARK  120  A    between atoms: _300  and  _301
REMARK  121  A    between atoms: _300  and  _303
REMARK  122  A    between atoms: _303  and  _304
REMARK  123  A    between atoms: _314  and  _316
REMARK  124  A    between atoms: _316  and  _317
REMARK  125  A    between atoms: _316  and  _319
REMARK  126  A    between atoms: _322  and  _324
REMARK  127  A    between atoms: _324  and  _325
REMARK  128  A    between atoms: _328  and  _330
REMARK  129  A    between atoms: _330  and  _331
REMARK  130  A    between atoms: _330  and  _333
REMARK  131  A    between atoms: _333  and  _334
REMARK  132  A    between atoms: _334  and  _335
REMARK  133  A    between atoms: _338  and  _340
REMARK  134  A    between atoms: _340  and  _341
REMARK  135  A    between atoms: _340  and  _343
REMARK  136  A    between atoms: _343  and  _344
REMARK  137  A    between atoms: _344  and  _345
REMARK  138  A    between atoms: _351  and  _352
REMARK  139  A    between atoms: _357  and  _359
REMARK  140  A    between atoms: _359  and  _360
REMARK  141  A    between atoms: _359  and  _362
REMARK  142  A    between atoms: _362  and  _363
REMARK  143  A    between atoms: _365  and  _367
REMARK  144  A    between atoms: _367  and  _368
REMARK  145  A    between atoms: _367  and  _370
REMARK  146  A    between atoms: _370  and  _371
REMARK  147  A    between atoms: _374  and  _376
REMARK  148  A    between atoms: _376  and  _377
REMARK  149  A    between atoms: _379  and  _381
REMARK  150  A    between atoms: _381  and  _382
REMARK  151  A    between atoms: _381  and  _384
REMARK  152  A    between atoms: _387  and  _389
REMARK  153  A    between atoms: _389  and  _390
REMARK  154  A    between atoms: _392  and  _394
REMARK  155  A    between atoms: _394  and  _395
REMARK  156  A    between atoms: _394  and  _397
REMARK  157  A    between atoms: _397  and  _398
REMARK  158  A    between atoms: _403  and  _404
REMARK  159  A    between atoms: _406  and  _408
REMARK  160  A    between atoms: _408  and  _409
REMARK  161  A    between atoms: _408  and  _411
REMARK  162  A    between atoms: _411  and  _412
REMARK  163  A    between atoms: _412  and  _413
REMARK  164  A    between atoms: _416  and  _418
REMARK  165  A    between atoms: _418  and  _419
REMARK  166  A    between atoms: _418  and  _421
REMARK  167  A    between atoms: _421  and  _422
REMARK  168  A    between atoms: _426  and  _427
REMARK  169  A    between atoms: _432  and  _434
REMARK  170  A    between atoms: _434  and  _435
REMARK  171  A    between atoms: _434  and  _437
REMARK  172  A    between atoms: _437  and  _438
REMARK  173  A    between atoms: _440  and  _442
REMARK  174  A    between atoms: _442  and  _443
REMARK  175  A    between atoms: _442  and  _445
REMARK  176  A    between atoms: _445  and  _446
REMARK  177  A    between atoms: _449  and  _451
REMARK  178  A    between atoms: _451  and  _452
REMARK  179  A    between atoms: _451  and  _454
REMARK  180  A    between atoms: _457  and  _459
REMARK  181  A    between atoms: _459  and  _460
REMARK  182  A    between atoms: _459  and  _462
REMARK  183  A    between atoms: _462  and  _463
REMARK  184  A    between atoms: _466  and  _468
REMARK  185  A    between atoms: _468  and  _469
REMARK  186  A    between atoms: _468  and  _471
REMARK  187  A    between atoms: _471  and  _472
REMARK  188  A    between atoms: _474  and  _476
REMARK  189  A    between atoms: _476  and  _477
REMARK  190  A    between atoms: _480  and  _482
REMARK  191  A    between atoms: _482  and  _483
REMARK  192  A    between atoms: _482  and  _485
REMARK  193  A    between atoms: _485  and  _486
REMARK  194  A    between atoms: _486  and  _487
REMARK  195  A    between atoms: _489  and  _491
REMARK  196  A    between atoms: _491  and  _492
REMARK  197  A    between atoms: _491  and  _494
REMARK  198  A    between atoms: _494  and  _495
REMARK  199  A    between atoms: _498  and  _500
REMARK  200  A    between atoms: _500  and  _501
REMARK  201  A    between atoms: _500  and  _503
REMARK  202  A    between atoms: _503  and  _504
REMARK  203  A    between atoms: _504  and  _505
REMARK  204  A    between atoms: _505  and  _506
REMARK                            x       y       z     vdW  Elec       q    Type
REMARK                         _______ _______ _______ _____ _____    ______ ____
ROOT
ATOM      1  CA  ILE A   6       6.300  80.469  -6.730  0.00  0.00    +0.149 C 
ENDROOT
BRANCH   1   4
ATOM      2  C   SER A   5       3.959  80.027  -6.290  0.00  0.00    +0.243 C 
ATOM      3  O   SER A   5       4.013  80.593  -5.198  0.00  0.00    -0.273 OA
ATOM      4  N   ILE A   6       5.027  79.841  -7.060  0.00  0.00    -0.297 N 
ATOM      5  H   ILE A   6       4.953  79.241  -7.906  0.00  0.00    +0.150 HD
BRANCH   2   6
ATOM      6  CA  SER A   5       2.644  79.485  -6.824  0.00  0.00    +0.178 C 
BRANCH   6   9
ATOM      7  C   GLY A   4       2.272  77.773  -5.129  0.00  0.00    +0.243 C 
ATOM      8  O   GLY A   4       3.405  77.306  -5.267  0.00  0.00    -0.273 OA
ATOM      9  N   SER A   5       1.842  78.848  -5.781  0.00  0.00    -0.295 N 
ATOM     10  H   SER A   5       0.911  79.246  -5.543  0.00  0.00    +0.150 HD
BRANCH   7  11
ATOM     11  CA  GLY A   4       1.292  77.140  -4.160  0.00  0.00    +0.176 C 
BRANCH  11  14
ATOM     12  C   CYS A   3       0.694  74.866  -3.600  0.00  0.00    +0.242 C 
ATOM     13  O   CYS A   3      -0.465  75.195  -3.315  0.00  0.00    -0.273 OA
ATOM     14  N   GLY A   4       1.619  75.742  -3.966  0.00  0.00    -0.295 N 
ATOM     15  H   GLY A   4       2.596  75.420  -4.117  0.00  0.00    +0.150 HD
BRANCH  12  16
ATOM     16  CA  CYS A   3       1.113  73.398  -3.602  0.00  0.00    +0.160 C 
BRANCH  16  19
ATOM     17  C   PHE A   2       1.627  72.324  -1.449  0.00  0.00    +0.241 C 
ATOM     18  O   PHE A   2       2.844  72.485  -1.582  0.00  0.00    -0.273 OA
ATOM     19  N   CYS A   3       0.736  72.697  -2.367  0.00  0.00    -0.296 N 
ATOM     20  H   CYS A   3      -0.268  72.483  -2.202  0.00  0.00    +0.150 HD
BRANCH  17  21
ATOM     21  CA  PHE A   2       1.075  71.679  -0.176  0.00  0.00    +0.153 C 
BRANCH  21  23
ATOM     22  C   TYR A   1       1.105  69.261  -0.172  0.00  0.00    +0.239 C 
ATOM     23  N   PHE A   2       1.722  70.404   0.107  0.00  0.00    -0.297 N 
ATOM     24  H   PHE A   2       2.672  70.389   0.530  0.00  0.00    +0.150 HD
ATOM     25  O   TYR A   1      -0.042  69.225  -0.626  0.00  0.00    -0.274 OA
BRANCH  22  26
ATOM     26  CA  TYR A   1       1.870  67.963   0.099  0.00  0.00    +0.149 C 
BRANCH  26  27
ATOM     27  N   TYR A   1       1.162  67.198   1.128  0.00  0.00    -0.238 NA
ATOM     28  H   TYR A   1       0.374  66.583   0.842  0.00  0.00    +0.142 HD
ENDBRANCH  26  27
BRANCH  26  29
ATOM     29  CB  TYR A   1       2.011  67.139  -1.195  0.00  0.00    +0.053 C 
BRANCH  29  30
ATOM     30  CG  TYR A   1       2.973  67.706  -2.240  0.00  0.00    -0.020 A 
ATOM     31  CD2 TYR A   1       4.241  67.153  -2.419  0.00  0.00    -0.001 A 
ATOM     32  CE2 TYR A   1       5.126  67.660  -3.370  0.00  0.00    +0.036 A 
ATOM     33  CZ  TYR A   1       4.742  68.730  -4.151  0.00  0.00    +0.134 A 
ATOM     34  CE1 TYR A   1       3.482  69.291  -3.998  0.00  0.00    +0.036 A 
ATOM     35  CD1 TYR A   1       2.608  68.775  -3.051  0.00  0.00    -0.001 A 
BRANCH  33  36
ATOM     36  OH  TYR A   1       5.617  69.232  -5.096  0.00  0.00    -0.506 OA
ATOM     37  HH  TYR A   1       5.192  69.992  -5.567  0.00  0.00    +0.292 HD
ENDBRANCH  33  36
ENDBRANCH  29  30
ENDBRANCH  26  29
ENDBRANCH  22  26
ENDBRANCH  21  23
BRANCH  21  38
ATOM     38  CB  PHE A   2       1.237  72.656   0.996  0.00  0.00    +0.055 C 
BRANCH  38  39
ATOM     39  CG  PHE A   2       0.722  74.026   0.682  0.00  0.00    -0.020 A 
ATOM     40  CD2 PHE A   2      -0.640  74.244   0.527  0.00  0.00    -0.004 A 
ATOM     41  CE2 PHE A   2      -1.124  75.500   0.192  0.00  0.00    -0.000 A 
ATOM     42  CZ  PHE A   2      -0.247  76.549   0.001  0.00  0.00    -0.000 A 
ATOM     43  CE1 PHE A   2       1.116  76.339   0.142  0.00  0.00    -0.000 A 
ATOM     44  CD1 PHE A   2       1.595  75.081   0.475  0.00  0.00    -0.004 A 
ENDBRANCH  38  39
ENDBRANCH  21  38
ENDBRANCH  17  21
ENDBRANCH  16  19
BRANCH  16  45
ATOM     45  CB  CYS A   3       0.474  72.749  -4.838  0.00  0.00    +0.098 C 
ATOM     46  SG  CYS A   3       0.395  70.980  -4.874  0.00  0.00    -0.080 S 
ENDBRANCH  16  45
ENDBRANCH  12  16
ENDBRANCH  11  14
ENDBRANCH   7  11
ENDBRANCH   6   9
BRANCH   6  47
ATOM     47  CB  SER A   5       1.858  80.619  -7.489  0.00  0.00    +0.166 C 
BRANCH  47  48
ATOM     48  OG  SER A   5       2.672  81.334  -8.409  0.00  0.00    -0.380 OA
ATOM     49  H   SER A   5       3.446  81.723  -7.930  0.00  0.00    +0.211 HD
ENDBRANCH  47  48
ENDBRANCH   6  47
ENDBRANCH   2   6
ENDBRANCH   1   4
BRANCH   1  50
ATOM     50  C   ILE A   6       6.737  81.345  -7.905  0.00  0.00    +0.241 C 
ATOM     51  O   ILE A   6       6.599  82.564  -7.844  0.00  0.00    -0.273 OA
ATOM     52  N   ARG A   7       7.203  80.741  -8.997  0.00  0.00    -0.297 N 
ATOM     53  H   ARG A   7       7.296  79.706  -9.023  0.00  0.00    +0.150 HD
BRANCH  52  54
ATOM     54  CA  ARG A   7       7.582  81.542 -10.158  0.00  0.00    +0.149 C 
BRANCH  54  55
ATOM     55  C   ARG A   7       6.349  82.036 -10.923  0.00  0.00    +0.241 C 
ATOM     56  N   GLY A   8       5.180  81.480 -10.625  0.00  0.00    -0.295 N 
ATOM     57  H   GLY A   8       5.155  80.631 -10.025  0.00  0.00    +0.150 HD
ATOM     58  O   ARG A   7       6.451  82.937 -11.748  0.00  0.00    -0.273 OA
BRANCH  56  59
ATOM     59  CA  GLY A   8       3.934  82.042 -11.126  0.00  0.00    +0.176 C 
BRANCH  59  60
ATOM     60  C   GLY A   8       3.619  83.356 -10.425  0.00  0.00    +0.243 C 
ATOM     61  N   GLY A   9       4.424  83.666  -9.410  0.00  0.00    -0.295 N 
ATOM     62  H   GLY A   9       5.222  83.026  -9.221  0.00  0.00    +0.150 HD
ATOM     63  O   GLY A   8       2.717  84.088 -10.826  0.00  0.00    -0.273 OA
BRANCH  61  64
ATOM     64  CA  GLY A   9       4.278  84.828  -8.543  0.00  0.00    +0.176 C 
BRANCH  64  65
ATOM     65  C   GLY A   9       3.848  84.593  -7.102  0.00  0.00    +0.243 C 
ATOM     66  N   ARG A  10       4.310  85.497  -6.240  0.00  0.00    -0.298 N 
ATOM     67  H   ARG A  10       4.748  86.356  -6.629  0.00  0.00    +0.150 HD
ATOM     68  O   GLY A   9       3.161  83.628  -6.778  0.00  0.00    -0.273 OA
BRANCH  66  69
ATOM     69  CA  ARG A  10       4.244  85.366  -4.788  0.00  0.00    +0.137 C 
BRANCH  69  70
ATOM     70  C   ARG A  10       3.097  86.110  -4.091  0.00  0.00    +0.227 C 
ATOM     71  O   ARG A  10       3.105  86.238  -2.866  0.00  0.00    -0.286 OA
ENDBRANCH  69  70
BRANCH  69  72
ATOM     72  CB  ARG A  10       5.582  85.776  -4.186  0.00  0.00    +0.031 C 
BRANCH  72  73
ATOM     73  CG  ARG A  10       6.733  84.853  -4.623  0.00  0.00    +0.045 C 
BRANCH  73  74
ATOM     74  CD  ARG A  10       6.443  83.389  -4.303  0.00  0.00    +0.174 C 
BRANCH  74  75
ATOM     75  NE  ARG A  10       6.602  83.117  -2.878  0.00  0.00    -0.265 N 
ATOM     76  CZ  ARG A  10       6.123  82.047  -2.246  0.00  0.00    +0.342 C 
ATOM     77  NH2 ARG A  10       6.328  81.905  -0.940  0.00  0.00    -0.292 N 
ATOM     78 HH21 ARG A  10       6.861  82.628  -0.416  0.00  0.00    +0.255 HD
ATOM     79 HH22 ARG A  10       5.956  81.071  -0.443  0.00  0.00    +0.255 HD
ATOM     80  NH1 ARG A  10       5.431  81.123  -2.906  0.00  0.00    -0.292 N 
ATOM     81 HH11 ARG A  10       5.062  80.291  -2.402  0.00  0.00    +0.255 HD
ATOM     82 HH12 ARG A  10       5.259  81.232  -3.926  0.00  0.00    +0.255 HD
ATOM     83  HE  ARG A  10       7.130  83.812  -2.313  0.00  0.00    +0.259 HD
ENDBRANCH  74  75
ENDBRANCH  73  74
ENDBRANCH  72  73
ENDBRANCH  69  72
ENDBRANCH  66  69
ENDBRANCH  64  65
ENDBRANCH  61  64
ENDBRANCH  59  60
ENDBRANCH  56  59
ENDBRANCH  54  55
BRANCH  54  84
ATOM     84  CB  ARG A   7       8.535  80.761 -11.073  0.00  0.00    +0.033 C 
BRANCH  84  85
ATOM     85  CG  ARG A   7       9.978  80.777 -10.542  0.00  0.00    +0.045 C 
BRANCH  85  86
ATOM     86  CD  ARG A   7      10.972  79.982 -11.404  0.00  0.00    +0.174 C 
BRANCH  86  87
ATOM     87  NE  ARG A   7      12.327  80.067 -10.863  0.00  0.00    -0.265 N 
ATOM     88  HE  ARG A   7      12.532  80.839 -10.197  0.00  0.00    +0.259 HD
ATOM     89  CZ  ARG A   7      13.318  79.230 -11.160  0.00  0.00    +0.342 C 
ATOM     90  NH2 ARG A   7      14.518  79.400 -10.611  0.00  0.00    -0.292 N 
ATOM     91 HH21 ARG A   7      14.681  80.187  -9.950  0.00  0.00    +0.255 HD
ATOM     92 HH22 ARG A   7      15.293  78.746 -10.843  0.00  0.00    +0.255 HD
ATOM     93  NH1 ARG A   7      13.116  78.224 -12.003  0.00  0.00    -0.292 N 
ATOM     94 HH11 ARG A   7      13.894  77.573 -12.232  0.00  0.00    +0.255 HD
ATOM     95 HH12 ARG A   7      12.180  78.087 -12.435  0.00  0.00    +0.255 HD
ENDBRANCH  86  87
ENDBRANCH  85  86
ENDBRANCH  84  85
ENDBRANCH  54  84
ENDBRANCH  52  54
ENDBRANCH   1  50
BRANCH   1  96
ATOM     96  CB  ILE A   6       7.365  79.421  -6.380  0.00  0.00    +0.027 C 
ATOM     97  CG2 ILE A   6       8.725  80.080  -6.153  0.00  0.00    +0.002 C 
BRANCH  96  98
ATOM     98  CG1 ILE A   6       6.928  78.647  -5.135  0.00  0.00    +0.002 C 
ATOM     99  CD1 ILE A   6       7.860  77.533  -4.737  0.00  0.00    +0.000 C 
ENDBRANCH  96  98
ENDBRANCH   1  96
TORSDOF 38
REMARK  Name = ../refined-set-2016/4p5d/4p5d_pocket.pdb
REMARK  204 active torsions:
REMARK  status: ('A' for Active; 'I' for Inactive)
REMARK    1  A    between atoms: _1  and  _3
REMARK    2  A    between atoms: _3  and  _4
REMARK    3  A    between atoms: _3  and  _6
REMARK    4  A    between atoms: _6  and  _7
REMARK    5  A    between atoms: _12  and  _13
REMARK    6  A    between atoms: _15  and  _17
REMARK    7  A    between atoms: _17  and  _18
REMARK    8  A    between atoms: _17  and  _20
REMARK    9  A    between atoms: _20  and  _21
REMARK   10  A    between atoms: _27  and  _29
REMARK   11  A    between atoms: _29  and  _30
REMARK   12  A    between atoms: _29  and  _32
REMARK   13  A    between atoms: _34  and  _36
REMARK   14  A    between atoms: _36  and  _37
REMARK   15  A    between atoms: _39  and  _41
REMARK   16  A    between atoms: _41  and  _42
REMARK   17  A    between atoms: _41  and  _44
REMARK   18  A    between atoms: _44  and  _45
REMARK   19  A    between atoms: _47  and  _49
REMARK   20  A    between atoms: _49  and  _50
REMARK   21  A    between atoms: _49  and  _52
REMARK   22  A    between atoms: _52  and  _53
REMARK   23  A    between atoms: _56  and  _58
REMARK   24  A    between atoms: _58  and  _59
REMARK   25  A    between atoms: _58  and  _61
REMARK   26  A    between atoms: _61  and  _62
REMARK   27  A    between atoms: _62  and  _63
REMARK   28  A    between atoms: _63  and  _64
REMARK   29  A    between atoms: _73  and  _75
REMARK   30  A    between atoms: _75  and  _76
REMARK   31  A    between atoms: _78  and  _80
REMARK   32  A    between atoms: _80  and  _81
REMARK   33  A    between atoms: _83  and  _85
REMARK   34  A    between atoms: _85  and  _86
REMARK   35  A    between atoms: _85  and  _88
REMARK   36  A    between atoms: _88  and  _89
REMARK   37  A    between atoms: _89  and  _90
REMARK   38  A    between atoms: _90  and  _91
REMARK   39  A    between atoms: _100  and  _102
REMARK   40  A    between atoms: _102  and  _103
REMARK   41  A    between atoms: _102  and  _105
REMARK   42  A    between atoms: _105  and  _106
REMARK   43  A    between atoms: _111  and  _112
REMARK   44  A    between atoms: _114  and  _116
REMARK   45  A    between atoms: _116  and  _117
REMARK   46  A    between atoms: _116  and  _119
REMARK   47  A    between atoms: _119  and  _120
REMARK   48  A    between atoms: _123  and  _125
REMARK   49  A    between atoms: _125  and  _126
REMARK   50  A    between atoms: _125  and  _128
REMARK   51  A    between atoms: _128  and  _129
REMARK   52  A    between atoms: _129  and  _130
REMARK   53  A    between atoms: _133  and  _135
REMARK   54  A    between atoms: _135  and  _136
REMARK   55  A    between atoms: _135  and  _138
REMARK   56  A    between atoms: _138  and  _139
REMARK   57  A    between atoms: _144  and  _146
REMARK   58  A    between atoms: _146  and  _147
REMARK   59  A    between atoms: _146  and  _149
REMARK   60  A    between atoms: _152  and  _154
REMARK   61  A    between atoms: _154  and  _155
REMARK   62  A    between atoms: _154  and  _157
REMARK   63  A    between atoms: _157  and  _158
REMARK   64  A    between atoms: _161  and  _163
REMARK   65  A    between atoms: _163  and  _164
REMARK   66  A    between atoms: _163  and  _166
REMARK   67  A    between atoms: _166  and  _167
REMARK   68  A    between atoms: _167  and  _168
REMARK   69  A    between atoms: _172  and  _173
REMARK   70  A    between atoms: _178  and  _180
REMARK   71  A    between atoms: _180  and  _181
REMARK   72  A    between atoms: _180  and  _183
REMARK   73  A    between atoms: _183  and  _184
REMARK   74  A    between atoms: _187  and  _189
REMARK   75  A    between atoms: _189  and  _190
REMARK   76  A    between atoms: _192  and  _194
REMARK   77  A    between atoms: _194  and  _195
REMARK   78  A    between atoms: _194  and  _197
REMARK   79  A    between atoms: _197  and  _198
REMARK   80  A    between atoms: _198  and  _199
REMARK   81  A    between atoms: _202  and  _204
REMARK   82  A    between atoms: _204  and  _205
REMARK   83  A    between atoms: _204  and  _207
REMARK   84  A    between atoms: _207  and  _208
REMARK   85  A    between atoms: _208  and  _209
REMARK   86  A    between atoms: _212  and  _214
REMARK   87  A    between atoms: _214  and  _215
REMARK   88  A    between atoms: _218  and  _220
REMARK   89  A    between atoms: _220  and  _221
REMARK   90  A    between atoms: _224  and  _226
REMARK   91  A    between atoms: _226  and  _227
REMARK   92  A    between atoms: _229  and  _231
REMARK   93  A    between atoms: _231  and  _232
REMARK   94  A    between atoms: _234  and  _236
REMARK   95  A    between atoms: _236  and  _237
REMARK   96  A    between atoms: _236  and  _239
REMARK   97  A    between atoms: _239  and  _240
REMARK   98  A    between atoms: _243  and  _245
REMARK   99  A    between atoms: _245  and  _246
REMARK  100  A    between atoms: _245  and  _248
REMARK  101  A    between atoms: _248  and  _249
REMARK  102  A    between atoms: _255  and  _257
REMARK  103  A    between atoms: _257  and  _258
REMARK  104  A    between atoms: _257  and  _260
REMARK  105  A    between atoms: _260  and  _261
REMARK  106  A    between atoms: _264  and  _266
REMARK  107  A    between atoms: _266  and  _267
REMARK  108  A    between atoms: _266  and  _269
REMARK  109  A    between atoms: _269  and  _270
REMARK  110  A    between atoms: _275  and  _277
REMARK  111  A    between atoms: _277  and  _278
REMARK  112  A    between atoms: _277  and  _280
REMARK  113  A    between atoms: _280  and  _281
REMARK  114  A    between atoms: _281  and  _282
REMARK  115  A    between atoms: _287  and  _289
REMARK  116  A    between atoms: _289  and  _290
REMARK  117  A    between atoms: _289  and  _292
REMARK  118  A    between atoms: _292  and  _293
REMARK  119  A    between atoms: _298  and  _300
REMARK  120  A    between atoms: _300  and  _301
REMARK  121  A    between atoms: _300  and  _303
REMARK  122  A    between atoms: _303  and  _304
REMARK  123  A    between atoms: _314  and  _316
REMARK  124  A    between atoms: _316  and  _317
REMARK  125  A    between atoms: _316  and  _319
REMARK  126  A    between atoms: _322  and  _324
REMARK  127  A    between atoms: _324  and  _325
REMARK  128  A    between atoms: _328  and  _330
REMARK  129  A    between atoms: _330  and  _331
REMARK  130  A    between atoms: _330  and  _333
REMARK  131  A    between atoms: _333  and  _334
REMARK  132  A    between atoms: _334  and  _335
REMARK  133  A    between atoms: _338  and  _340
REMARK  134  A    between atoms: _340  and  _341
REMARK  135  A    between atoms: _340  and  _343
REMARK  136  A    between atoms: _343  and  _344
REMARK  137  A    between atoms: _344  and  _345
REMARK  138  A    between atoms: _351  and  _352
REMARK  139  A    between atoms: _357  and  _359
REMARK  140  A    between atoms: _359  and  _360
REMARK  141  A    between atoms: _359  and  _362
REMARK  142  A    between atoms: _362  and  _363
REMARK  143  A    between atoms: _365  and  _367
REMARK  144  A    between atoms: _367  and  _368
REMARK  145  A    between atoms: _367  and  _370
REMARK  146  A    between atoms: _370  and  _371
REMARK  147  A    between atoms: _374  and  _376
REMARK  148  A    between atoms: _376  and  _377
REMARK  149  A    between atoms: _379  and  _381
REMARK  150  A    between atoms: _381  and  _382
REMARK  151  A    between atoms: _381  and  _384
REMARK  152  A    between atoms: _387  and  _389
REMARK  153  A    between atoms: _389  and  _390
REMARK  154  A    between atoms: _392  and  _394
REMARK  155  A    between atoms: _394  and  _395
REMARK  156  A    between atoms: _394  and  _397
REMARK  157  A    between atoms: _397  and  _398
REMARK  158  A    between atoms: _403  and  _404
REMARK  159  A    between atoms: _406  and  _408
REMARK  160  A    between atoms: _408  and  _409
REMARK  161  A    between atoms: _408  and  _411
REMARK  162  A    between atoms: _411  and  _412
REMARK  163  A    between atoms: _412  and  _413
REMARK  164  A    between atoms: _416  and  _418
REMARK  165  A    between atoms: _418  and  _419
REMARK  166  A    between atoms: _418  and  _421
REMARK  167  A    between atoms: _421  and  _422
REMARK  168  A    between atoms: _426  and  _427
REMARK  169  A    between atoms: _432  and  _434
REMARK  170  A    between atoms: _434  and  _435
REMARK  171  A    between atoms: _434  and  _437
REMARK  172  A    between atoms: _437  and  _438
REMARK  173  A    between atoms: _440  and  _442
REMARK  174  A    between atoms: _442  and  _443
REMARK  175  A    between atoms: _442  and  _445
REMARK  176  A    between atoms: _445  and  _446
REMARK  177  A    between atoms: _449  and  _451
REMARK  178  A    between atoms: _451  and  _452
REMARK  179  A    between atoms: _451  and  _454
REMARK  180  A    between atoms: _457  and  _459
REMARK  181  A    between atoms: _459  and  _460
REMARK  182  A    between atoms: _459  and  _462
REMARK  183  A    between atoms: _462  and  _463
REMARK  184  A    between atoms: _466  and  _468
REMARK  185  A    between atoms: _468  and  _469
REMARK  186  A    between atoms: _468  and  _471
REMARK  187  A    between atoms: _471  and  _472
REMARK  188  A    between atoms: _474  and  _476
REMARK  189  A    between atoms: _476  and  _477
REMARK  190  A    between atoms: _480  and  _482
REMARK  191  A    between atoms: _482  and  _483
REMARK  192  A    between atoms: _482  and  _485
REMARK  193  A    between atoms: _485  and  _486
REMARK  194  A    between atoms: _486  and  _487
REMARK  195  A    between atoms: _489  and  _491
REMARK  196  A    between atoms: _491  and  _492
REMARK  197  A    between atoms: _491  and  _494
REMARK  198  A    between atoms: _494  and  _495
REMARK  199  A    between atoms: _498  and  _500
REMARK  200  A    between atoms: _500  and  _501
REMARK  201  A    between atoms: _500  and  _503
REMARK  202  A    between atoms: _503  and  _504
REMARK  203  A    between atoms: _504  and  _505
REMARK  204  A    between atoms: _505  and  _506
REMARK                            x       y       z     vdW  Elec       q    Type
REMARK                         _______ _______ _______ _____ _____    ______ ____
ROOT
ATOM      1  CG  TYR A   1       0.896  80.153  -0.499  0.00  0.00    -0.020 A 
ATOM      2  CD2 TYR A   1      -0.430  80.167  -0.928  0.00  0.00    -0.001 A 
ATOM      3  CE2 TYR A   1      -0.747  80.451  -2.254  0.00  0.00    +0.036 A 
ATOM      4  CZ  TYR A   1       0.274  80.708  -3.147  0.00  0.00    +0.134 A 
ATOM      5  CE1 TYR A   1       1.587  80.691  -2.734  0.00  0.00    +0.036 A 
ATOM      6  CD1 TYR A   1       1.886  80.412  -1.433  0.00  0.00    -0.001 A 
ENDROOT
BRANCH   4   7
ATOM      7  OH  TYR A   1       0.016  80.990  -4.458  0.00  0.00    -0.506 OA
ATOM      8  HH  TYR A   1      -0.962  80.968  -4.613  0.00  0.00    +0.292 HD
ENDBRANCH   4   7
BRANCH   1   9
ATOM      9  CB  TYR A   1       1.267  79.857   0.947  0.00  0.00    +0.051 C 
BRANCH   9  10
ATOM     10  CA  TYR A   1       0.118  79.969   1.950  0.00  0.00    +0.137 C 
BRANCH  10  11
ATOM     11  N   TYR A   1      -0.496  81.290   1.924  0.00  0.00    -0.239 NA
ATOM     12  H   TYR A   1      -0.113  82.028   1.299  0.00  0.00    +0.142 HD
ENDBRANCH  10  11
BRANCH  10  13
ATOM     13  C   TYR A   1       0.623  79.680   3.370  0.00  0.00    +0.224 C 
ATOM     14  O   TYR A   1       0.502  78.559   3.865  0.00  0.00    -0.287 OA
ENDBRANCH  10  13
ENDBRANCH   9  10
ENDBRANCH   1   9
TORSDOF 5
REMARK  Name = ../refined-set-2016/4p5d/4p5d_pocket.pdb
REMARK  204 active torsions:
REMARK  status: ('A' for Active; 'I' for Inactive)
REMARK    1  A    between atoms: _1  and  _3
REMARK    2  A    between atoms: _3  and  _4
REMARK    3  A    between atoms: _3  and  _6
REMARK    4  A    between atoms: _6  and  _7
REMARK    5  A    between atoms: _12  and  _13
REMARK    6  A    between atoms: _15  and  _17
REMARK    7  A    between atoms: _17  and  _18
REMARK    8  A    between atoms: _17  and  _20
REMARK    9  A    between atoms: _20  and  _21
REMARK   10  A    between atoms: _27  and  _29
REMARK   11  A    between atoms: _29  and  _30
REMARK   12  A    between atoms: _29  and  _32
REMARK   13  A    between atoms: _34  and  _36
REMARK   14  A    between atoms: _36  and  _37
REMARK   15  A    between atoms: _39  and  _41
REMARK   16  A    between atoms: _41  and  _42
REMARK   17  A    between atoms: _41  and  _44
REMARK   18  A    between atoms: _44  and  _45
REMARK   19  A    between atoms: _47  and  _49
REMARK   20  A    between atoms: _49  and  _50
REMARK   21  A    between atoms: _49  and  _52
REMARK   22  A    between atoms: _52  and  _53
REMARK   23  A    between atoms: _56  and  _58
REMARK   24  A    between atoms: _58  and  _59
REMARK   25  A    between atoms: _58  and  _61
REMARK   26  A    between atoms: _61  and  _62
REMARK   27  A    between atoms: _62  and  _63
REMARK   28  A    between atoms: _63  and  _64
REMARK   29  A    between atoms: _73  and  _75
REMARK   30  A    between atoms: _75  and  _76
REMARK   31  A    between atoms: _78  and  _80
REMARK   32  A    between atoms: _80  and  _81
REMARK   33  A    between atoms: _83  and  _85
REMARK   34  A    between atoms: _85  and  _86
REMARK   35  A    between atoms: _85  and  _88
REMARK   36  A    between atoms: _88  and  _89
REMARK   37  A    between atoms: _89  and  _90
REMARK   38  A    between atoms: _90  and  _91
REMARK   39  A    between atoms: _100  and  _102
REMARK   40  A    between atoms: _102  and  _103
REMARK   41  A    between atoms: _102  and  _105
REMARK   42  A    between atoms: _105  and  _106
REMARK   43  A    between atoms: _111  and  _112
REMARK   44  A    between atoms: _114  and  _116
REMARK   45  A    between atoms: _116  and  _117
REMARK   46  A    between atoms: _116  and  _119
REMARK   47  A    between atoms: _119  and  _120
REMARK   48  A    between atoms: _123  and  _125
REMARK   49  A    between atoms: _125  and  _126
REMARK   50  A    between atoms: _125  and  _128
REMARK   51  A    between atoms: _128  and  _129
REMARK   52  A    between atoms: _129  and  _130
REMARK   53  A    between atoms: _133  and  _135
REMARK   54  A    between atoms: _135  and  _136
REMARK   55  A    between atoms: _135  and  _138
REMARK   56  A    between atoms: _138  and  _139
REMARK   57  A    between atoms: _144  and  _146
REMARK   58  A    between atoms: _146  and  _147
REMARK   59  A    between atoms: _146  and  _149
REMARK   60  A    between atoms: _152  and  _154
REMARK   61  A    between atoms: _154  and  _155
REMARK   62  A    between atoms: _154  and  _157
REMARK   63  A    between atoms: _157  and  _158
REMARK   64  A    between atoms: _161  and  _163
REMARK   65  A    between atoms: _163  and  _164
REMARK   66  A    between atoms: _163  and  _166
REMARK   67  A    between atoms: _166  and  _167
REMARK   68  A    between atoms: _167  and  _168
REMARK   69  A    between atoms: _172  and  _173
REMARK   70  A    between atoms: _178  and  _180
REMARK   71  A    between atoms: _180  and  _181
REMARK   72  A    between atoms: _180  and  _183
REMARK   73  A    between atoms: _183  and  _184
REMARK   74  A    between atoms: _187  and  _189
REMARK   75  A    between atoms: _189  and  _190
REMARK   76  A    between atoms: _192  and  _194
REMARK   77  A    between atoms: _194  and  _195
REMARK   78  A    between atoms: _194  and  _197
REMARK   79  A    between atoms: _197  and  _198
REMARK   80  A    between atoms: _198  and  _199
REMARK   81  A    between atoms: _202  and  _204
REMARK   82  A    between atoms: _204  and  _205
REMARK   83  A    between atoms: _204  and  _207
REMARK   84  A    between atoms: _207  and  _208
REMARK   85  A    between atoms: _208  and  _209
REMARK   86  A    between atoms: _212  and  _214
REMARK   87  A    between atoms: _214  and  _215
REMARK   88  A    between atoms: _218  and  _220
REMARK   89  A    between atoms: _220  and  _221
REMARK   90  A    between atoms: _224  and  _226
REMARK   91  A    between atoms: _226  and  _227
REMARK   92  A    between atoms: _229  and  _231
REMARK   93  A    between atoms: _231  and  _232
REMARK   94  A    between atoms: _234  and  _236
REMARK   95  A    between atoms: _236  and  _237
REMARK   96  A    between atoms: _236  and  _239
REMARK   97  A    between atoms: _239  and  _240
REMARK   98  A    between atoms: _243  and  _245
REMARK   99  A    between atoms: _245  and  _246
REMARK  100  A    between atoms: _245  and  _248
REMARK  101  A    between atoms: _248  and  _249
REMARK  102  A    between atoms: _255  and  _257
REMARK  103  A    between atoms: _257  and  _258
REMARK  104  A    between atoms: _257  and  _260
REMARK  105  A    between atoms: _260  and  _261
REMARK  106  A    between atoms: _264  and  _266
REMARK  107  A    between atoms: _266  and  _267
REMARK  108  A    between atoms: _266  and  _269
REMARK  109  A    between atoms: _269  and  _270
REMARK  110  A    between atoms: _275  and  _277
REMARK  111  A    between atoms: _277  and  _278
REMARK  112  A    between atoms: _277  and  _280
REMARK  113  A    between atoms: _280  and  _281
REMARK  114  A    between atoms: _281  and  _282
REMARK  115  A    between atoms: _287  and  _289
REMARK  116  A    between atoms: _289  and  _290
REMARK  117  A    between atoms: _289  and  _292
REMARK  118  A    between atoms: _292  and  _293
REMARK  119  A    between atoms: _298  and  _300
REMARK  120  A    between atoms: _300  and  _301
REMARK  121  A    between atoms: _300  and  _303
REMARK  122  A    between atoms: _303  and  _304
REMARK  123  A    between atoms: _314  and  _316
REMARK  124  A    between atoms: _316  and  _317
REMARK  125  A    between atoms: _316  and  _319
REMARK  126  A    between atoms: _322  and  _324
REMARK  127  A    between atoms: _324  and  _325
REMARK  128  A    between atoms: _328  and  _330
REMARK  129  A    between atoms: _330  and  _331
REMARK  130  A    between atoms: _330  and  _333
REMARK  131  A    between atoms: _333  and  _334
REMARK  132  A    between atoms: _334  and  _335
REMARK  133  A    between atoms: _338  and  _340
REMARK  134  A    between atoms: _340  and  _341
REMARK  135  A    between atoms: _340  and  _343
REMARK  136  A    between atoms: _343  and  _344
REMARK  137  A    between atoms: _344  and  _345
REMARK  138  A    between atoms: _351  and  _352
REMARK  139  A    between atoms: _357  and  _359
REMARK  140  A    between atoms: _359  and  _360
REMARK  141  A    between atoms: _359  and  _362
REMARK  142  A    between atoms: _362  and  _363
REMARK  143  A    between atoms: _365  and  _367
REMARK  144  A    between atoms: _367  and  _368
REMARK  145  A    between atoms: _367  and  _370
REMARK  146  A    between atoms: _370  and  _371
REMARK  147  A    between atoms: _374  and  _376
REMARK  148  A    between atoms: _376  and  _377
REMARK  149  A    between atoms: _379  and  _381
REMARK  150  A    between atoms: _381  and  _382
REMARK  151  A    between atoms: _381  and  _384
REMARK  152  A    between atoms: _387  and  _389
REMARK  153  A    between atoms: _389  and  _390
REMARK  154  A    between atoms: _392  and  _394
REMARK  155  A    between atoms: _394  and  _395
REMARK  156  A    between atoms: _394  and  _397
REMARK  157  A    between atoms: _397  and  _398
REMARK  158  A    between atoms: _403  and  _404
REMARK  159  A    between atoms: _406  and  _408
REMARK  160  A    between atoms: _408  and  _409
REMARK  161  A    between atoms: _408  and  _411
REMARK  162  A    between atoms: _411  and  _412
REMARK  163  A    between atoms: _412  and  _413
REMARK  164  A    between atoms: _416  and  _418
REMARK  165  A    between atoms: _418  and  _419
REMARK  166  A    between atoms: _418  and  _421
REMARK  167  A    between atoms: _421  and  _422
REMARK  168  A    between atoms: _426  and  _427
REMARK  169  A    between atoms: _432  and  _434
REMARK  170  A    between atoms: _434  and  _435
REMARK  171  A    between atoms: _434  and  _437
REMARK  172  A    between atoms: _437  and  _438
REMARK  173  A    between atoms: _440  and  _442
REMARK  174  A    between atoms: _442  and  _443
REMARK  175  A    between atoms: _442  and  _445
REMARK  176  A    between atoms: _445  and  _446
REMARK  177  A    between atoms: _449  and  _451
REMARK  178  A    between atoms: _451  and  _452
REMARK  179  A    between atoms: _451  and  _454
REMARK  180  A    between atoms: _457  and  _459
REMARK  181  A    between atoms: _459  and  _460
REMARK  182  A    between atoms: _459  and  _462
REMARK  183  A    between atoms: _462  and  _463
REMARK  184  A    between atoms: _466  and  _468
REMARK  185  A    between atoms: _468  and  _469
REMARK  186  A    between atoms: _468  and  _471
REMARK  187  A    between atoms: _471  and  _472
REMARK  188  A    between atoms: _474  and  _476
REMARK  189  A    between atoms: _476  and  _477
REMARK  190  A    between atoms: _480  and  _482
REMARK  191  A    between atoms: _482  and  _483
REMARK  192  A    between atoms: _482  and  _485
REMARK  193  A    between atoms: _485  and  _486
REMARK  194  A    between atoms: _486  and  _487
REMARK  195  A    between atoms: _489  and  _491
REMARK  196  A    between atoms: _491  and  _492
REMARK  197  A    between atoms: _491  and  _494
REMARK  198  A    between atoms: _494  and  _495
REMARK  199  A    between atoms: _498  and  _500
REMARK  200  A    between atoms: _500  and  _501
REMARK  201  A    between atoms: _500  and  _503
REMARK  202  A    between atoms: _503  and  _504
REMARK  203  A    between atoms: _504  and  _505
REMARK  204  A    between atoms: _505  and  _506
REMARK                            x       y       z     vdW  Elec       q    Type
REMARK                         _______ _______ _______ _____ _____    ______ ____
ROOT
ATOM      1  C   GLU A   2       7.095  75.093   3.402  0.00  0.00    +0.241 C 
ATOM      2  O   GLU A   2       6.596  76.207   3.539  0.00  0.00    -0.273 OA
ATOM      3  N   HIS A   3       8.247  74.897   2.776  0.00  0.00    -0.297 N 
ATOM      4  H   HIS A   3       8.623  73.929   2.714  0.00  0.00    +0.150 HD
ENDROOT
BRANCH   3   5
ATOM      5  CA  HIS A   3       9.012  75.989   2.168  0.00  0.00    +0.155 C 
BRANCH   5   6
ATOM      6  C   HIS A   3       8.244  76.843   1.144  0.00  0.00    +0.241 C 
ATOM      7  O   HIS A   3       8.614  77.992   0.904  0.00  0.00    -0.273 OA
ATOM      8  N   VAL A   4       7.202  76.280   0.524  0.00  0.00    -0.298 N 
ATOM      9  H   VAL A   4       6.959  75.293   0.742  0.00  0.00    +0.150 HD
BRANCH   8  10
ATOM     10  CA  VAL A   4       6.390  77.012  -0.455  0.00  0.00    +0.137 C 
BRANCH  10  11
ATOM     11  CB  VAL A   4       5.263  76.118  -1.052  0.00  0.00    +0.026 C 
ATOM     12  CG2 VAL A   4       5.847  74.870  -1.701  0.00  0.00    +0.002 C 
ATOM     13  CG1 VAL A   4       4.423  76.887  -2.070  0.00  0.00    +0.002 C 
ENDBRANCH  10  11
BRANCH  10  14
ATOM     14  C   VAL A   4       5.767  78.265   0.174  0.00  0.00    +0.227 C 
ATOM     15  O   VAL A   4       5.522  79.267  -0.504  0.00  0.00    -0.286 OA
ENDBRANCH  10  14
ENDBRANCH   8  10
ENDBRANCH   5   6
BRANCH   5  16
ATOM     16  CB  HIS A   3      10.238  75.401   1.490  0.00  0.00    +0.076 C 
BRANCH  16  17
ATOM     17  CG  HIS A   3       9.902  74.285   0.557  0.00  0.00    +0.082 A 
ATOM     18  ND1 HIS A   3       9.780  72.978   0.985  0.00  0.00    -0.227 NA
ATOM     19  CE1 HIS A   3       9.452  72.216  -0.043  0.00  0.00    +0.199 A 
ATOM     20  NE2 HIS A   3       9.341  72.980  -1.115  0.00  0.00    -0.221 NA
ATOM     21  CD2 HIS A   3       9.607  74.280  -0.762  0.00  0.00    +0.115 A 
ENDBRANCH  16  17
ENDBRANCH   5  16
ENDBRANCH   3   5
BRANCH   1  22
ATOM     22  CA  GLU A   2       6.379  73.852   3.947  0.00  0.00    +0.149 C 
BRANCH  22  24
ATOM     23  C   THR A   1       6.473  72.600   1.832  0.00  0.00    +0.241 C 
ATOM     24  N   GLU A   2       6.572  72.628   3.157  0.00  0.00    -0.297 N 
ATOM     25  H   GLU A   2       6.796  71.744   3.657  0.00  0.00    +0.150 HD
ATOM     26  O   THR A   1       6.292  73.620   1.157  0.00  0.00    -0.274 OA
BRANCH  23  27
ATOM     27  CA  THR A   1       6.366  71.236   1.154  0.00  0.00    +0.172 C 
BRANCH  27  28
ATOM     28  CB  THR A   1       5.388  71.340   0.009  0.00  0.00    +0.135 C 
ATOM     29  CG2 THR A   1       5.654  70.193  -0.933  0.00  0.00    +0.034 C 
BRANCH  28  30
ATOM     30  OG1 THR A   1       4.056  71.237   0.517  0.00  0.00    -0.383 OA
ATOM     31  HG1 THR A   1       3.412  71.305  -0.232  0.00  0.00    +0.210 HD
ENDBRANCH  28  30
ENDBRANCH  27  28
BRANCH  27  32
ATOM     32  N   THR A   1       6.057  70.085   1.999  0.00  0.00    -0.236 NA
ATOM     33  H   THR A   1       5.058  69.915   2.232  0.00  0.00    +0.142 HD
ENDBRANCH  27  32
ENDBRANCH  23  27
ENDBRANCH  22  24
BRANCH  22  34
ATOM     34  CB  GLU A   2       6.841  73.599   5.389  0.00  0.00    +0.041 C 
BRANCH  34  35
ATOM     35  CG  GLU A   2       8.150  72.824   5.456  0.00  0.00    +0.116 C 
BRANCH  35  36
ATOM     36  CD  GLU A   2       8.582  72.481   6.875  0.00  0.00    +0.365 C 
ATOM     37  OE2 GLU A   2       9.355  73.263   7.465  0.00  0.00    -0.246 OA
ATOM     38  OE1 GLU A   2       8.164  71.421   7.390  0.00  0.00    -0.246 OA
ENDBRANCH  35  36
ENDBRANCH  34  35
ENDBRANCH  22  34
ENDBRANCH   1  22
TORSDOF 16
REMARK  Name = ../refined-set-2016/4p5d/4p5d_pocket.pdb
REMARK  204 active torsions:
REMARK  status: ('A' for Active; 'I' for Inactive)
REMARK    1  A    between atoms: _1  and  _3
REMARK    2  A    between atoms: _3  and  _4
REMARK    3  A    between atoms: _3  and  _6
REMARK    4  A    between atoms: _6  and  _7
REMARK    5  A    between atoms: _12  and  _13
REMARK    6  A    between atoms: _15  and  _17
REMARK    7  A    between atoms: _17  and  _18
REMARK    8  A    between atoms: _17  and  _20
REMARK    9  A    between atoms: _20  and  _21
REMARK   10  A    between atoms: _27  and  _29
REMARK   11  A    between atoms: _29  and  _30
REMARK   12  A    between atoms: _29  and  _32
REMARK   13  A    between atoms: _34  and  _36
REMARK   14  A    between atoms: _36  and  _37
REMARK   15  A    between atoms: _39  and  _41
REMARK   16  A    between atoms: _41  and  _42
REMARK   17  A    between atoms: _41  and  _44
REMARK   18  A    between atoms: _44  and  _45
REMARK   19  A    between atoms: _47  and  _49
REMARK   20  A    between atoms: _49  and  _50
REMARK   21  A    between atoms: _49  and  _52
REMARK   22  A    between atoms: _52  and  _53
REMARK   23  A    between atoms: _56  and  _58
REMARK   24  A    between atoms: _58  and  _59
REMARK   25  A    between atoms: _58  and  _61
REMARK   26  A    between atoms: _61  and  _62
REMARK   27  A    between atoms: _62  and  _63
REMARK   28  A    between atoms: _63  and  _64
REMARK   29  A    between atoms: _73  and  _75
REMARK   30  A    between atoms: _75  and  _76
REMARK   31  A    between atoms: _78  and  _80
REMARK   32  A    between atoms: _80  and  _81
REMARK   33  A    between atoms: _83  and  _85
REMARK   34  A    between atoms: _85  and  _86
REMARK   35  A    between atoms: _85  and  _88
REMARK   36  A    between atoms: _88  and  _89
REMARK   37  A    between atoms: _89  and  _90
REMARK   38  A    between atoms: _90  and  _91
REMARK   39  A    between atoms: _100  and  _102
REMARK   40  A    between atoms: _102  and  _103
REMARK   41  A    between atoms: _102  and  _105
REMARK   42  A    between atoms: _105  and  _106
REMARK   43  A    between atoms: _111  and  _112
REMARK   44  A    between atoms: _114  and  _116
REMARK   45  A    between atoms: _116  and  _117
REMARK   46  A    between atoms: _116  and  _119
REMARK   47  A    between atoms: _119  and  _120
REMARK   48  A    between atoms: _123  and  _125
REMARK   49  A    between atoms: _125  and  _126
REMARK   50  A    between atoms: _125  and  _128
REMARK   51  A    between atoms: _128  and  _129
REMARK   52  A    between atoms: _129  and  _130
REMARK   53  A    between atoms: _133  and  _135
REMARK   54  A    between atoms: _135  and  _136
REMARK   55  A    between atoms: _135  and  _138
REMARK   56  A    between atoms: _138  and  _139
REMARK   57  A    between atoms: _144  and  _146
REMARK   58  A    between atoms: _146  and  _147
REMARK   59  A    between atoms: _146  and  _149
REMARK   60  A    between atoms: _152  and  _154
REMARK   61  A    between atoms: _154  and  _155
REMARK   62  A    between atoms: _154  and  _157
REMARK   63  A    between atoms: _157  and  _158
REMARK   64  A    between atoms: _161  and  _163
REMARK   65  A    between atoms: _163  and  _164
REMARK   66  A    between atoms: _163  and  _166
REMARK   67  A    between atoms: _166  and  _167
REMARK   68  A    between atoms: _167  and  _168
REMARK   69  A    between atoms: _172  and  _173
REMARK   70  A    between atoms: _178  and  _180
REMARK   71  A    between atoms: _180  and  _181
REMARK   72  A    between atoms: _180  and  _183
REMARK   73  A    between atoms: _183  and  _184
REMARK   74  A    between atoms: _187  and  _189
REMARK   75  A    between atoms: _189  and  _190
REMARK   76  A    between atoms: _192  and  _194
REMARK   77  A    between atoms: _194  and  _195
REMARK   78  A    between atoms: _194  and  _197
REMARK   79  A    between atoms: _197  and  _198
REMARK   80  A    between atoms: _198  and  _199
REMARK   81  A    between atoms: _202  and  _204
REMARK   82  A    between atoms: _204  and  _205
REMARK   83  A    between atoms: _204  and  _207
REMARK   84  A    between atoms: _207  and  _208
REMARK   85  A    between atoms: _208  and  _209
REMARK   86  A    between atoms: _212  and  _214
REMARK   87  A    between atoms: _214  and  _215
REMARK   88  A    between atoms: _218  and  _220
REMARK   89  A    between atoms: _220  and  _221
REMARK   90  A    between atoms: _224  and  _226
REMARK   91  A    between atoms: _226  and  _227
REMARK   92  A    between atoms: _229  and  _231
REMARK   93  A    between atoms: _231  and  _232
REMARK   94  A    between atoms: _234  and  _236
REMARK   95  A    between atoms: _236  and  _237
REMARK   96  A    between atoms: _236  and  _239
REMARK   97  A    between atoms: _239  and  _240
REMARK   98  A    between atoms: _243  and  _245
REMARK   99  A    between atoms: _245  and  _246
REMARK  100  A    between atoms: _245  and  _248
REMARK  101  A    between atoms: _248  and  _249
REMARK  102  A    between atoms: _255  and  _257
REMARK  103  A    between atoms: _257  and  _258
REMARK  104  A    between atoms: _257  and  _260
REMARK  105  A    between atoms: _260  and  _261
REMARK  106  A    between atoms: _264  and  _266
REMARK  107  A    between atoms: _266  and  _267
REMARK  108  A    between atoms: _266  and  _269
REMARK  109  A    between atoms: _269  and  _270
REMARK  110  A    between atoms: _275  and  _277
REMARK  111  A    between atoms: _277  and  _278
REMARK  112  A    between atoms: _277  and  _280
REMARK  113  A    between atoms: _280  and  _281
REMARK  114  A    between atoms: _281  and  _282
REMARK  115  A    between atoms: _287  and  _289
REMARK  116  A    between atoms: _289  and  _290
REMARK  117  A    between atoms: _289  and  _292
REMARK  118  A    between atoms: _292  and  _293
REMARK  119  A    between atoms: _298  and  _300
REMARK  120  A    between atoms: _300  and  _301
REMARK  121  A    between atoms: _300  and  _303
REMARK  122  A    between atoms: _303  and  _304
REMARK  123  A    between atoms: _314  and  _316
REMARK  124  A    between atoms: _316  and  _317
REMARK  125  A    between atoms: _316  and  _319
REMARK  126  A    between atoms: _322  and  _324
REMARK  127  A    between atoms: _324  and  _325
REMARK  128  A    between atoms: _328  and  _330
REMARK  129  A    between atoms: _330  and  _331
REMARK  130  A    between atoms: _330  and  _333
REMARK  131  A    between atoms: _333  and  _334
REMARK  132  A    between atoms: _334  and  _335
REMARK  133  A    between atoms: _338  and  _340
REMARK  134  A    between atoms: _340  and  _341
REMARK  135  A    between atoms: _340  and  _343
REMARK  136  A    between atoms: _343  and  _344
REMARK  137  A    between atoms: _344  and  _345
REMARK  138  A    between atoms: _351  and  _352
REMARK  139  A    between atoms: _357  and  _359
REMARK  140  A    between atoms: _359  and  _360
REMARK  141  A    between atoms: _359  and  _362
REMARK  142  A    between atoms: _362  and  _363
REMARK  143  A    between atoms: _365  and  _367
REMARK  144  A    between atoms: _367  and  _368
REMARK  145  A    between atoms: _367  and  _370
REMARK  146  A    between atoms: _370  and  _371
REMARK  147  A    between atoms: _374  and  _376
REMARK  148  A    between atoms: _376  and  _377
REMARK  149  A    between atoms: _379  and  _381
REMARK  150  A    between atoms: _381  and  _382
REMARK  151  A    between atoms: _381  and  _384
REMARK  152  A    between atoms: _387  and  _389
REMARK  153  A    between atoms: _389  and  _390
REMARK  154  A    between atoms: _392  and  _394
REMARK  155  A    between atoms: _394  and  _395
REMARK  156  A    between atoms: _394  and  _397
REMARK  157  A    between atoms: _397  and  _398
REMARK  158  A    between atoms: _403  and  _404
REMARK  159  A    between atoms: _406  and  _408
REMARK  160  A    between atoms: _408  and  _409
REMARK  161  A    between atoms: _408  and  _411
REMARK  162  A    between atoms: _411  and  _412
REMARK  163  A    between atoms: _412  and  _413
REMARK  164  A    between atoms: _416  and  _418
REMARK  165  A    between atoms: _418  and  _419
REMARK  166  A    between atoms: _418  and  _421
REMARK  167  A    between atoms: _421  and  _422
REMARK  168  A    between atoms: _426  and  _427
REMARK  169  A    between atoms: _432  and  _434
REMARK  170  A    between atoms: _434  and  _435
REMARK  171  A    between atoms: _434  and  _437
REMARK  172  A    between atoms: _437  and  _438
REMARK  173  A    between atoms: _440  and  _442
REMARK  174  A    between atoms: _442  and  _443
REMARK  175  A    between atoms: _442  and  _445
REMARK  176  A    between atoms: _445  and  _446
REMARK  177  A    between atoms: _449  and  _451
REMARK  178  A    between atoms: _451  and  _452
REMARK  179  A    between atoms: _451  and  _454
REMARK  180  A    between atoms: _457  and  _459
REMARK  181  A    between atoms: _459  and  _460
REMARK  182  A    between atoms: _459  and  _462
REMARK  183  A    between atoms: _462  and  _463
REMARK  184  A    between atoms: _466  and  _468
REMARK  185  A    between atoms: _468  and  _469
REMARK  186  A    between atoms: _468  and  _471
REMARK  187  A    between atoms: _471  and  _472
REMARK  188  A    between atoms: _474  and  _476
REMARK  189  A    between atoms: _476  and  _477
REMARK  190  A    between atoms: _480  and  _482
REMARK  191  A    between atoms: _482  and  _483
REMARK  192  A    between atoms: _482  and  _485
REMARK  193  A    between atoms: _485  and  _486
REMARK  194  A    between atoms: _486  and  _487
REMARK  195  A    between atoms: _489  and  _491
REMARK  196  A    between atoms: _491  and  _492
REMARK  197  A    between atoms: _491  and  _494
REMARK  198  A    between atoms: _494  and  _495
REMARK  199  A    between atoms: _498  and  _500
REMARK  200  A    between atoms: _500  and  _501
REMARK  201  A    between atoms: _500  and  _503
REMARK  202  A    between atoms: _503  and  _504
REMARK  203  A    between atoms: _504  and  _505
REMARK  204  A    between atoms: _505  and  _506
REMARK                            x       y       z     vdW  Elec       q    Type
REMARK                         _______ _______ _______ _____ _____    ______ ____
ROOT
ATOM      1  CA  GLU A   6      17.443  81.529 -10.555  0.00  0.00    +0.149 C 
ENDROOT
BRANCH   1   3
ATOM      2  C   GLY A   5      17.511  83.984  -9.879  0.00  0.00    +0.243 C 
ATOM      3  N   GLU A   6      16.882  82.794  -9.951  0.00  0.00    -0.297 N 
ATOM      4  H   GLU A   6      15.922  82.742  -9.554  0.00  0.00    +0.150 HD
ATOM      5  O   GLY A   5      18.324  84.362 -10.702  0.00  0.00    -0.273 OA
BRANCH   2   6
ATOM      6  CA  GLY A   5      17.072  84.967  -8.785  0.00  0.00    +0.176 C 
BRANCH   6   8
ATOM      7  C   LEU A   4      15.061  85.727  -9.965  0.00  0.00    +0.241 C 
ATOM      8  N   GLY A   5      15.654  85.218  -8.881  0.00  0.00    -0.295 N 
ATOM      9  H   GLY A   5      15.059  84.990  -8.059  0.00  0.00    +0.150 HD
ATOM     10  O   LEU A   4      15.649  86.355 -10.853  0.00  0.00    -0.273 OA
BRANCH   7  11
ATOM     11  CA  LEU A   4      13.565  85.433 -10.047  0.00  0.00    +0.149 C 
BRANCH  11  14
ATOM     12  C   PRO A   3      13.112  84.959  -7.642  0.00  0.00    +0.241 C 
ATOM     13  O   PRO A   3      13.161  86.130  -7.235  0.00  0.00    -0.273 OA
ATOM     14  N   LEU A   4      13.363  84.562  -8.888  0.00  0.00    -0.297 N 
ATOM     15  H   LEU A   4      13.421  83.537  -9.053  0.00  0.00    +0.150 HD
BRANCH  12  22
ATOM     16  C   GLU A   2      12.712  84.698  -4.263  0.00  0.00    +0.244 C 
ATOM     17  O   GLU A   2      13.892  84.768  -3.905  0.00  0.00    -0.273 OA
ATOM     18  N   PRO A   3      12.308  84.251  -5.454  0.00  0.00    -0.272 N 
ATOM     19  CD  PRO A   3      10.844  84.072  -5.510  0.00  0.00    +0.094 C 
ATOM     20  CG  PRO A   3      10.607  83.459  -6.868  0.00  0.00    +0.024 C 
ATOM     21  CB  PRO A   3      11.868  82.833  -7.248  0.00  0.00    +0.031 C 
ATOM     22  CA  PRO A   3      12.895  83.811  -6.708  0.00  0.00    +0.152 C 
BRANCH  16  23
ATOM     23  CA  GLU A   2      11.590  85.111  -3.335  0.00  0.00    +0.149 C 
BRANCH  23  26
ATOM     24  C   LEU A   1      11.003  83.794  -1.433  0.00  0.00    +0.238 C 
ATOM     25  O   LEU A   1       9.779  83.998  -1.549  0.00  0.00    -0.274 OA
ATOM     26  N   GLU A   2      11.932  84.447  -2.117  0.00  0.00    -0.297 N 
ATOM     27  H   GLU A   2      12.911  84.476  -1.767  0.00  0.00    +0.150 HD
BRANCH  24  28
ATOM     28  CA  LEU A   1      11.558  82.727  -0.521  0.00  0.00    +0.145 C 
BRANCH  28  29
ATOM     29  N   LEU A   1      11.263  83.237   0.788  0.00  0.00    -0.238 NA
ATOM     30  H   LEU A   1      10.483  82.858   1.362  0.00  0.00    +0.142 HD
ENDBRANCH  28  29
BRANCH  28  31
ATOM     31  CB  LEU A   1      10.884  81.358  -0.764  0.00  0.00    +0.026 C 
BRANCH  31  32
ATOM     32  CG  LEU A   1      11.166  80.470  -1.996  0.00  0.00    +0.002 C 
ATOM     33  CD2 LEU A   1      10.476  79.130  -1.857  0.00  0.00    +0.000 C 
ATOM     34  CD1 LEU A   1      10.751  81.090  -3.296  0.00  0.00    +0.000 C 
ENDBRANCH  31  32
ENDBRANCH  28  31
ENDBRANCH  24  28
ENDBRANCH  23  26
BRANCH  23  35
ATOM     35  CB  GLU A   2      11.478  86.634  -3.130  0.00  0.00    +0.041 C 
BRANCH  35  36
ATOM     36  CG  GLU A   2      10.498  87.019  -2.006  0.00  0.00    +0.116 C 
BRANCH  36  37
ATOM     37  CD  GLU A   2      10.752  88.391  -1.399  0.00  0.00    +0.365 C 
ATOM     38  OE2 GLU A   2      11.424  88.468  -0.343  0.00  0.00    -0.246 OA
ATOM     39  OE1 GLU A   2      10.244  89.387  -1.958  0.00  0.00    -0.246 OA
ENDBRANCH  36  37
ENDBRANCH  35  36
ENDBRANCH  23  35
ENDBRANCH  16  23
ENDBRANCH  12  22
ENDBRANCH  11  14
BRANCH  11  40
ATOM     40  CB  LEU A   4      12.654  86.673 -10.050  0.00  0.00    +0.029 C 
BRANCH  40  41
ATOM     41  CG  LEU A   4      11.154  86.342  -9.866  0.00  0.00    +0.002 C 
ATOM     42  CD2 LEU A   4      10.295  87.536 -10.281  0.00  0.00    +0.000 C 
ATOM     43  CD1 LEU A   4      10.680  85.042 -10.575  0.00  0.00    +0.000 C 
ENDBRANCH  40  41
ENDBRANCH  11  40
ENDBRANCH   7  11
ENDBRANCH   6   8
ENDBRANCH   2   6
ENDBRANCH   1   3
BRANCH   1  44
ATOM     44  C   GLU A   6      18.267  80.529  -9.711  0.00  0.00    +0.241 C 
ATOM     45  N   GLU A   7      18.356  80.709  -8.400  0.00  0.00    -0.297 N 
ATOM     46  H   GLU A   7      17.826  81.497  -7.976  0.00  0.00    +0.150 HD
ATOM     47  O   GLU A   6      18.934  79.657 -10.286  0.00  0.00    -0.273 OA
BRANCH  45  48
ATOM     48  CA  GLU A   7      19.178  79.840  -7.493  0.00  0.00    +0.149 C 
BRANCH  48  49
ATOM     49  C   GLU A   7      18.565  78.435  -7.209  0.00  0.00    +0.241 C 
ATOM     50  N   ALA A   8      18.961  77.885  -6.050  0.00  0.00    -0.297 N 
ATOM     51  H   ALA A   8      19.451  78.545  -5.412  0.00  0.00    +0.150 HD
ATOM     52  O   GLU A   7      17.790  77.901  -8.022  0.00  0.00    -0.273 OA
BRANCH  50  53
ATOM     53  CA  ALA A   8      18.828  76.508  -5.512  0.00  0.00    +0.149 C 
ATOM     54  CB  ALA A   8      17.571  75.819  -6.112  0.00  0.00    +0.031 C 
BRANCH  53  55
ATOM     55  C   ALA A   8      20.018  75.577  -5.707  0.00  0.00    +0.241 C 
ATOM     56  O   ALA A   8      20.035  74.471  -5.127  0.00  0.00    -0.273 OA
ATOM     57  N   ALA A   9      20.992  75.998  -6.508  0.00  0.00    -0.297 N 
ATOM     58  H   ALA A   9      20.762  76.745  -7.194  0.00  0.00    +0.150 HD
BRANCH  57  59
ATOM     59  CA  ALA A   9      22.375  75.485  -6.497  0.00  0.00    +0.149 C 
ATOM     60  CB  ALA A   9      23.059  75.759  -5.149  0.00  0.00    +0.031 C 
BRANCH  59  61
ATOM     61  C   ALA A   9      22.388  73.997  -6.834  0.00  0.00    +0.241 C 
ATOM     62  N   GLY A  10      21.236  73.345  -6.763  0.00  0.00    -0.295 N 
ATOM     63  H   GLY A  10      20.394  73.851  -6.421  0.00  0.00    +0.150 HD
ATOM     64  O   ALA A   9      23.386  73.476  -7.244  0.00  0.00    -0.273 OA
BRANCH  62  65
ATOM     65  CA  GLY A  10      21.108  71.952  -7.145  0.00  0.00    +0.176 C 
BRANCH  65  66
ATOM     66  C   GLY A  10      20.389  71.863  -8.470  0.00  0.00    +0.243 C 
ATOM     67  N   GLY A  11      19.813  72.990  -8.877  0.00  0.00    -0.295 N 
ATOM     68  H   GLY A  11      19.857  73.832  -8.268  0.00  0.00    +0.150 HD
ATOM     69  O   GLY A  10      20.339  70.806  -9.103  0.00  0.00    -0.273 OA
BRANCH  67  70
ATOM     70  CA  GLY A  11      19.126  73.072 -10.148  0.00  0.00    +0.176 C 
BRANCH  70  71
ATOM     71  C   GLY A  11      17.669  72.681 -10.087  0.00  0.00    +0.243 C 
ATOM     72  O   GLY A  11      17.181  72.135  -9.098  0.00  0.00    -0.273 OA
ATOM     73  N   ASP A  12      16.975  72.951 -11.186  0.00  0.00    -0.297 N 
ATOM     74  H   ASP A  12      17.450  73.409 -11.990  0.00  0.00    +0.150 HD
BRANCH  73  75
ATOM     75  CA  ASP A  12      15.567  72.619 -11.287  0.00  0.00    +0.148 C 
BRANCH  75  76
ATOM     76  C   ASP A  12      15.366  71.114 -11.283  0.00  0.00    +0.227 C 
ATOM     77  O   ASP A  12      14.366  70.625 -10.775  0.00  0.00    -0.286 OA
ENDBRANCH  75  76
BRANCH  75  78
ATOM     78  CB  ASP A  12      14.976  73.263 -12.540  0.00  0.00    +0.142 C 
BRANCH  78  79
ATOM     79  CG  ASP A  12      15.130  74.768 -12.529  0.00  0.00    +0.367 C 
ATOM     80  OD2 ASP A  12      14.871  75.376 -11.474  0.00  0.00    -0.246 OA
ATOM     81  OD1 ASP A  12      15.541  75.348 -13.549  0.00  0.00    -0.246 OA
ENDBRANCH  78  79
ENDBRANCH  75  78
ENDBRANCH  73  75
ENDBRANCH  70  71
ENDBRANCH  67  70
ENDBRANCH  65  66
ENDBRANCH  62  65
ENDBRANCH  59  61
ENDBRANCH  57  59
ENDBRANCH  53  55
ENDBRANCH  50  53
ENDBRANCH  48  49
BRANCH  48  82
ATOM     82  CB  GLU A   7      19.446  80.549  -6.158  0.00  0.00    +0.041 C 
BRANCH  82  83
ATOM     83  CG  GLU A   7      20.969  80.758  -5.834  0.00  0.00    +0.116 C 
BRANCH  83  84
ATOM     84  CD  GLU A   7      21.334  80.521  -4.363  0.00  0.00    +0.365 C 
ATOM     85  OE2 GLU A   7      22.007  81.370  -3.729  0.00  0.00    -0.246 OA
ATOM     86  OE1 GLU A   7      20.954  79.457  -3.845  0.00  0.00    -0.246 OA
ENDBRANCH  83  84
ENDBRANCH  82  83
ENDBRANCH  48  82
ENDBRANCH  45  48
ENDBRANCH   1  44
BRANCH   1  87
ATOM     87  CB  GLU A   6      18.273  81.786 -11.796  0.00  0.00    +0.041 C 
BRANCH  87  88
ATOM     88  CG  GLU A   6      17.501  81.342 -13.029  0.00  0.00    +0.116 C 
BRANCH  88  89
ATOM     89  CD  GLU A   6      17.343  82.475 -14.002  0.00  0.00    +0.365 C 
ATOM     90  OE2 GLU A   6      17.223  83.611 -13.488  0.00  0.00    -0.246 OA
ATOM     91  OE1 GLU A   6      17.342  82.240 -15.240  0.00  0.00    -0.246 OA
ENDBRANCH  88  89
ENDBRANCH  87  88
ENDBRANCH   1  87
TORSDOF 38
REMARK  Name = ../refined-set-2016/4p5d/4p5d_pocket.pdb
REMARK  204 active torsions:
REMARK  status: ('A' for Active; 'I' for Inactive)
REMARK    1  A    between atoms: _1  and  _3
REMARK    2  A    between atoms: _3  and  _4
REMARK    3  A    between atoms: _3  and  _6
REMARK    4  A    between atoms: _6  and  _7
REMARK    5  A    between atoms: _12  and  _13
REMARK    6  A    between atoms: _15  and  _17
REMARK    7  A    between atoms: _17  and  _18
REMARK    8  A    between atoms: _17  and  _20
REMARK    9  A    between atoms: _20  and  _21
REMARK   10  A    between atoms: _27  and  _29
REMARK   11  A    between atoms: _29  and  _30
REMARK   12  A    between atoms: _29  and  _32
REMARK   13  A    between atoms: _34  and  _36
REMARK   14  A    between atoms: _36  and  _37
REMARK   15  A    between atoms: _39  and  _41
REMARK   16  A    between atoms: _41  and  _42
REMARK   17  A    between atoms: _41  and  _44
REMARK   18  A    between atoms: _44  and  _45
REMARK   19  A    between atoms: _47  and  _49
REMARK   20  A    between atoms: _49  and  _50
REMARK   21  A    between atoms: _49  and  _52
REMARK   22  A    between atoms: _52  and  _53
REMARK   23  A    between atoms: _56  and  _58
REMARK   24  A    between atoms: _58  and  _59
REMARK   25  A    between atoms: _58  and  _61
REMARK   26  A    between atoms: _61  and  _62
REMARK   27  A    between atoms: _62  and  _63
REMARK   28  A    between atoms: _63  and  _64
REMARK   29  A    between atoms: _73  and  _75
REMARK   30  A    between atoms: _75  and  _76
REMARK   31  A    between atoms: _78  and  _80
REMARK   32  A    between atoms: _80  and  _81
REMARK   33  A    between atoms: _83  and  _85
REMARK   34  A    between atoms: _85  and  _86
REMARK   35  A    between atoms: _85  and  _88
REMARK   36  A    between atoms: _88  and  _89
REMARK   37  A    between atoms: _89  and  _90
REMARK   38  A    between atoms: _90  and  _91
REMARK   39  A    between atoms: _100  and  _102
REMARK   40  A    between atoms: _102  and  _103
REMARK   41  A    between atoms: _102  and  _105
REMARK   42  A    between atoms: _105  and  _106
REMARK   43  A    between atoms: _111  and  _112
REMARK   44  A    between atoms: _114  and  _116
REMARK   45  A    between atoms: _116  and  _117
REMARK   46  A    between atoms: _116  and  _119
REMARK   47  A    between atoms: _119  and  _120
REMARK   48  A    between atoms: _123  and  _125
REMARK   49  A    between atoms: _125  and  _126
REMARK   50  A    between atoms: _125  and  _128
REMARK   51  A    between atoms: _128  and  _129
REMARK   52  A    between atoms: _129  and  _130
REMARK   53  A    between atoms: _133  and  _135
REMARK   54  A    between atoms: _135  and  _136
REMARK   55  A    between atoms: _135  and  _138
REMARK   56  A    between atoms: _138  and  _139
REMARK   57  A    between atoms: _144  and  _146
REMARK   58  A    between atoms: _146  and  _147
REMARK   59  A    between atoms: _146  and  _149
REMARK   60  A    between atoms: _152  and  _154
REMARK   61  A    between atoms: _154  and  _155
REMARK   62  A    between atoms: _154  and  _157
REMARK   63  A    between atoms: _157  and  _158
REMARK   64  A    between atoms: _161  and  _163
REMARK   65  A    between atoms: _163  and  _164
REMARK   66  A    between atoms: _163  and  _166
REMARK   67  A    between atoms: _166  and  _167
REMARK   68  A    between atoms: _167  and  _168
REMARK   69  A    between atoms: _172  and  _173
REMARK   70  A    between atoms: _178  and  _180
REMARK   71  A    between atoms: _180  and  _181
REMARK   72  A    between atoms: _180  and  _183
REMARK   73  A    between atoms: _183  and  _184
REMARK   74  A    between atoms: _187  and  _189
REMARK   75  A    between atoms: _189  and  _190
REMARK   76  A    between atoms: _192  and  _194
REMARK   77  A    between atoms: _194  and  _195
REMARK   78  A    between atoms: _194  and  _197
REMARK   79  A    between atoms: _197  and  _198
REMARK   80  A    between atoms: _198  and  _199
REMARK   81  A    between atoms: _202  and  _204
REMARK   82  A    between atoms: _204  and  _205
REMARK   83  A    between atoms: _204  and  _207
REMARK   84  A    between atoms: _207  and  _208
REMARK   85  A    between atoms: _208  and  _209
REMARK   86  A    between atoms: _212  and  _214
REMARK   87  A    between atoms: _214  and  _215
REMARK   88  A    between atoms: _218  and  _220
REMARK   89  A    between atoms: _220  and  _221
REMARK   90  A    between atoms: _224  and  _226
REMARK   91  A    between atoms: _226  and  _227
REMARK   92  A    between atoms: _229  and  _231
REMARK   93  A    between atoms: _231  and  _232
REMARK   94  A    between atoms: _234  and  _236
REMARK   95  A    between atoms: _236  and  _237
REMARK   96  A    between atoms: _236  and  _239
REMARK   97  A    between atoms: _239  and  _240
REMARK   98  A    between atoms: _243  and  _245
REMARK   99  A    between atoms: _245  and  _246
REMARK  100  A    between atoms: _245  and  _248
REMARK  101  A    between atoms: _248  and  _249
REMARK  102  A    between atoms: _255  and  _257
REMARK  103  A    between atoms: _257  and  _258
REMARK  104  A    between atoms: _257  and  _260
REMARK  105  A    between atoms: _260  and  _261
REMARK  106  A    between atoms: _264  and  _266
REMARK  107  A    between atoms: _266  and  _267
REMARK  108  A    between atoms: _266  and  _269
REMARK  109  A    between atoms: _269  and  _270
REMARK  110  A    between atoms: _275  and  _277
REMARK  111  A    between atoms: _277  and  _278
REMARK  112  A    between atoms: _277  and  _280
REMARK  113  A    between atoms: _280  and  _281
REMARK  114  A    between atoms: _281  and  _282
REMARK  115  A    between atoms: _287  and  _289
REMARK  116  A    between atoms: _289  and  _290
REMARK  117  A    between atoms: _289  and  _292
REMARK  118  A    between atoms: _292  and  _293
REMARK  119  A    between atoms: _298  and  _300
REMARK  120  A    between atoms: _300  and  _301
REMARK  121  A    between atoms: _300  and  _303
REMARK  122  A    between atoms: _303  and  _304
REMARK  123  A    between atoms: _314  and  _316
REMARK  124  A    between atoms: _316  and  _317
REMARK  125  A    between atoms: _316  and  _319
REMARK  126  A    between atoms: _322  and  _324
REMARK  127  A    between atoms: _324  and  _325
REMARK  128  A    between atoms: _328  and  _330
REMARK  129  A    between atoms: _330  and  _331
REMARK  130  A    between atoms: _330  and  _333
REMARK  131  A    between atoms: _333  and  _334
REMARK  132  A    between atoms: _334  and  _335
REMARK  133  A    between atoms: _338  and  _340
REMARK  134  A    between atoms: _340  and  _341
REMARK  135  A    between atoms: _340  and  _343
REMARK  136  A    between atoms: _343  and  _344
REMARK  137  A    between atoms: _344  and  _345
REMARK  138  A    between atoms: _351  and  _352
REMARK  139  A    between atoms: _357  and  _359
REMARK  140  A    between atoms: _359  and  _360
REMARK  141  A    between atoms: _359  and  _362
REMARK  142  A    between atoms: _362  and  _363
REMARK  143  A    between atoms: _365  and  _367
REMARK  144  A    between atoms: _367  and  _368
REMARK  145  A    between atoms: _367  and  _370
REMARK  146  A    between atoms: _370  and  _371
REMARK  147  A    between atoms: _374  and  _376
REMARK  148  A    between atoms: _376  and  _377
REMARK  149  A    between atoms: _379  and  _381
REMARK  150  A    between atoms: _381  and  _382
REMARK  151  A    between atoms: _381  and  _384
REMARK  152  A    between atoms: _387  and  _389
REMARK  153  A    between atoms: _389  and  _390
REMARK  154  A    between atoms: _392  and  _394
REMARK  155  A    between atoms: _394  and  _395
REMARK  156  A    between atoms: _394  and  _397
REMARK  157  A    between atoms: _397  and  _398
REMARK  158  A    between atoms: _403  and  _404
REMARK  159  A    between atoms: _406  and  _408
REMARK  160  A    between atoms: _408  and  _409
REMARK  161  A    between atoms: _408  and  _411
REMARK  162  A    between atoms: _411  and  _412
REMARK  163  A    between atoms: _412  and  _413
REMARK  164  A    between atoms: _416  and  _418
REMARK  165  A    between atoms: _418  and  _419
REMARK  166  A    between atoms: _418  and  _421
REMARK  167  A    between atoms: _421  and  _422
REMARK  168  A    between atoms: _426  and  _427
REMARK  169  A    between atoms: _432  and  _434
REMARK  170  A    between atoms: _434  and  _435
REMARK  171  A    between atoms: _434  and  _437
REMARK  172  A    between atoms: _437  and  _438
REMARK  173  A    between atoms: _440  and  _442
REMARK  174  A    between atoms: _442  and  _443
REMARK  175  A    between atoms: _442  and  _445
REMARK  176  A    between atoms: _445  and  _446
REMARK  177  A    between atoms: _449  and  _451
REMARK  178  A    between atoms: _451  and  _452
REMARK  179  A    between atoms: _451  and  _454
REMARK  180  A    between atoms: _457  and  _459
REMARK  181  A    between atoms: _459  and  _460
REMARK  182  A    between atoms: _459  and  _462
REMARK  183  A    between atoms: _462  and  _463
REMARK  184  A    between atoms: _466  and  _468
REMARK  185  A    between atoms: _468  and  _469
REMARK  186  A    between atoms: _468  and  _471
REMARK  187  A    between atoms: _471  and  _472
REMARK  188  A    between atoms: _474  and  _476
REMARK  189  A    between atoms: _476  and  _477
REMARK  190  A    between atoms: _480  and  _482
REMARK  191  A    between atoms: _482  and  _483
REMARK  192  A    between atoms: _482  and  _485
REMARK  193  A    between atoms: _485  and  _486
REMARK  194  A    between atoms: _486  and  _487
REMARK  195  A    between atoms: _489  and  _491
REMARK  196  A    between atoms: _491  and  _492
REMARK  197  A    between atoms: _491  and  _494
REMARK  198  A    between atoms: _494  and  _495
REMARK  199  A    between atoms: _498  and  _500
REMARK  200  A    between atoms: _500  and  _501
REMARK  201  A    between atoms: _500  and  _503
REMARK  202  A    between atoms: _503  and  _504
REMARK  203  A    between atoms: _504  and  _505
REMARK  204  A    between atoms: _505  and  _506
REMARK                            x       y       z     vdW  Elec       q    Type
REMARK                         _______ _______ _______ _____ _____    ______ ____
ROOT
ATOM      1  CA  ILE A   2      13.871  70.509  -7.193  0.00  0.00    +0.148 C 
ENDROOT
BRANCH   1   4
ATOM      2  C   PHE A   1      15.604  68.817  -7.455  0.00  0.00    +0.239 C 
ATOM      3  O   PHE A   1      14.981  67.983  -6.812  0.00  0.00    -0.274 OA
ATOM      4  N   ILE A   2      15.174  70.058  -7.660  0.00  0.00    -0.297 N 
ATOM      5  H   ILE A   2      15.787  70.727  -8.169  0.00  0.00    +0.150 HD
BRANCH   2   6
ATOM      6  CA  PHE A   1      16.947  68.469  -8.086  0.00  0.00    +0.149 C 
BRANCH   6   7
ATOM      7  N   PHE A   1      16.953  68.906  -9.478  0.00  0.00    -0.238 NA
ATOM      8  H   PHE A   1      17.612  69.655  -9.771  0.00  0.00    +0.142 HD
ENDBRANCH   6   7
BRANCH   6   9
ATOM      9  CB  PHE A   1      18.095  69.112  -7.308  0.00  0.00    +0.053 C 
BRANCH   9  10
ATOM     10  CG  PHE A   1      18.087  68.790  -5.835  0.00  0.00    -0.020 A 
ATOM     11  CD2 PHE A   1      17.600  69.703  -4.914  0.00  0.00    -0.004 A 
ATOM     12  CE2 PHE A   1      17.601  69.411  -3.550  0.00  0.00    -0.000 A 
ATOM     13  CZ  PHE A   1      18.083  68.199  -3.106  0.00  0.00    -0.000 A 
ATOM     14  CE1 PHE A   1      18.577  67.280  -4.011  0.00  0.00    -0.000 A 
ATOM     15  CD1 PHE A   1      18.572  67.576  -5.373  0.00  0.00    -0.004 A 
ENDBRANCH   9  10
ENDBRANCH   6   9
ENDBRANCH   2   6
ENDBRANCH   1   4
BRANCH   1  16
ATOM     16  C   ILE A   2      12.767  69.578  -7.688  0.00  0.00    +0.241 C 
ATOM     17  O   ILE A   2      11.942  69.111  -6.904  0.00  0.00    -0.273 OA
ATOM     18  N   HIS A   3      12.768  69.299  -8.987  0.00  0.00    -0.298 N 
ATOM     19  H   HIS A   3      13.502  69.707  -9.601  0.00  0.00    +0.150 HD
BRANCH  18  20
ATOM     20  CA  HIS A   3      11.751  68.427  -9.559  0.00  0.00    +0.143 C 
BRANCH  20  21
ATOM     21  C   HIS A   3      11.740  67.044  -8.892  0.00  0.00    +0.227 C 
ATOM     22  O   HIS A   3      10.692  66.570  -8.457  0.00  0.00    -0.286 OA
ENDBRANCH  20  21
BRANCH  20  23
ATOM     23  CB  HIS A   3      11.938  68.268 -11.084  0.00  0.00    +0.075 C 
BRANCH  23  24
ATOM     24  CG  HIS A   3      10.904  67.393 -11.713  0.00  0.00    +0.082 A 
ATOM     25  ND1 HIS A   3      11.019  66.024 -11.770  0.00  0.00    -0.227 NA
ATOM     26  CE1 HIS A   3       9.951  65.512 -12.359  0.00  0.00    +0.199 A 
ATOM     27  NE2 HIS A   3       9.138  66.507 -12.674  0.00  0.00    -0.221 NA
ATOM     28  CD2 HIS A   3       9.702  67.690 -12.276  0.00  0.00    +0.115 A 
ENDBRANCH  23  24
ENDBRANCH  20  23
ENDBRANCH  18  20
ENDBRANCH   1  16
BRANCH   1  29
ATOM     29  CB  ILE A   2      13.574  71.948  -7.658  0.00  0.00    +0.027 C 
ATOM     30  CG2 ILE A   2      12.127  72.321  -7.362  0.00  0.00    +0.002 C 
BRANCH  29  31
ATOM     31  CG1 ILE A   2      14.532  72.932  -6.981  0.00  0.00    +0.002 C 
ATOM     32  CD1 ILE A   2      14.462  74.336  -7.545  0.00  0.00    +0.000 C 
ENDBRANCH  29  31
ENDBRANCH   1  29
TORSDOF 12
REMARK  Name = ../refined-set-2016/4p5d/4p5d_pocket.pdb
REMARK  204 active torsions:
REMARK  status: ('A' for Active; 'I' for Inactive)
REMARK    1  A    between atoms: _1  and  _3
REMARK    2  A    between atoms: _3  and  _4
REMARK    3  A    between atoms: _3  and  _6
REMARK    4  A    between atoms: _6  and  _7
REMARK    5  A    between atoms: _12  and  _13
REMARK    6  A    between atoms: _15  and  _17
REMARK    7  A    between atoms: _17  and  _18
REMARK    8  A    between atoms: _17  and  _20
REMARK    9  A    between atoms: _20  and  _21
REMARK   10  A    between atoms: _27  and  _29
REMARK   11  A    between atoms: _29  and  _30
REMARK   12  A    between atoms: _29  and  _32
REMARK   13  A    between atoms: _34  and  _36
REMARK   14  A    between atoms: _36  and  _37
REMARK   15  A    between atoms: _39  and  _41
REMARK   16  A    between atoms: _41  and  _42
REMARK   17  A    between atoms: _41  and  _44
REMARK   18  A    between atoms: _44  and  _45
REMARK   19  A    between atoms: _47  and  _49
REMARK   20  A    between atoms: _49  and  _50
REMARK   21  A    between atoms: _49  and  _52
REMARK   22  A    between atoms: _52  and  _53
REMARK   23  A    between atoms: _56  and  _58
REMARK   24  A    between atoms: _58  and  _59
REMARK   25  A    between atoms: _58  and  _61
REMARK   26  A    between atoms: _61  and  _62
REMARK   27  A    between atoms: _62  and  _63
REMARK   28  A    between atoms: _63  and  _64
REMARK   29  A    between atoms: _73  and  _75
REMARK   30  A    between atoms: _75  and  _76
REMARK   31  A    between atoms: _78  and  _80
REMARK   32  A    between atoms: _80  and  _81
REMARK   33  A    between atoms: _83  and  _85
REMARK   34  A    between atoms: _85  and  _86
REMARK   35  A    between atoms: _85  and  _88
REMARK   36  A    between atoms: _88  and  _89
REMARK   37  A    between atoms: _89  and  _90
REMARK   38  A    between atoms: _90  and  _91
REMARK   39  A    between atoms: _100  and  _102
REMARK   40  A    between atoms: _102  and  _103
REMARK   41  A    between atoms: _102  and  _105
REMARK   42  A    between atoms: _105  and  _106
REMARK   43  A    between atoms: _111  and  _112
REMARK   44  A    between atoms: _114  and  _116
REMARK   45  A    between atoms: _116  and  _117
REMARK   46  A    between atoms: _116  and  _119
REMARK   47  A    between atoms: _119  and  _120
REMARK   48  A    between atoms: _123  and  _125
REMARK   49  A    between atoms: _125  and  _126
REMARK   50  A    between atoms: _125  and  _128
REMARK   51  A    between atoms: _128  and  _129
REMARK   52  A    between atoms: _129  and  _130
REMARK   53  A    between atoms: _133  and  _135
REMARK   54  A    between atoms: _135  and  _136
REMARK   55  A    between atoms: _135  and  _138
REMARK   56  A    between atoms: _138  and  _139
REMARK   57  A    between atoms: _144  and  _146
REMARK   58  A    between atoms: _146  and  _147
REMARK   59  A    between atoms: _146  and  _149
REMARK   60  A    between atoms: _152  and  _154
REMARK   61  A    between atoms: _154  and  _155
REMARK   62  A    between atoms: _154  and  _157
REMARK   63  A    between atoms: _157  and  _158
REMARK   64  A    between atoms: _161  and  _163
REMARK   65  A    between atoms: _163  and  _164
REMARK   66  A    between atoms: _163  and  _166
REMARK   67  A    between atoms: _166  and  _167
REMARK   68  A    between atoms: _167  and  _168
REMARK   69  A    between atoms: _172  and  _173
REMARK   70  A    between atoms: _178  and  _180
REMARK   71  A    between atoms: _180  and  _181
REMARK   72  A    between atoms: _180  and  _183
REMARK   73  A    between atoms: _183  and  _184
REMARK   74  A    between atoms: _187  and  _189
REMARK   75  A    between atoms: _189  and  _190
REMARK   76  A    between atoms: _192  and  _194
REMARK   77  A    between atoms: _194  and  _195
REMARK   78  A    between atoms: _194  and  _197
REMARK   79  A    between atoms: _197  and  _198
REMARK   80  A    between atoms: _198  and  _199
REMARK   81  A    between atoms: _202  and  _204
REMARK   82  A    between atoms: _204  and  _205
REMARK   83  A    between atoms: _204  and  _207
REMARK   84  A    between atoms: _207  and  _208
REMARK   85  A    between atoms: _208  and  _209
REMARK   86  A    between atoms: _212  and  _214
REMARK   87  A    between atoms: _214  and  _215
REMARK   88  A    between atoms: _218  and  _220
REMARK   89  A    between atoms: _220  and  _221
REMARK   90  A    between atoms: _224  and  _226
REMARK   91  A    between atoms: _226  and  _227
REMARK   92  A    between atoms: _229  and  _231
REMARK   93  A    between atoms: _231  and  _232
REMARK   94  A    between atoms: _234  and  _236
REMARK   95  A    between atoms: _236  and  _237
REMARK   96  A    between atoms: _236  and  _239
REMARK   97  A    between atoms: _239  and  _240
REMARK   98  A    between atoms: _243  and  _245
REMARK   99  A    between atoms: _245  and  _246
REMARK  100  A    between atoms: _245  and  _248
REMARK  101  A    between atoms: _248  and  _249
REMARK  102  A    between atoms: _255  and  _257
REMARK  103  A    between atoms: _257  and  _258
REMARK  104  A    between atoms: _257  and  _260
REMARK  105  A    between atoms: _260  and  _261
REMARK  106  A    between atoms: _264  and  _266
REMARK  107  A    between atoms: _266  and  _267
REMARK  108  A    between atoms: _266  and  _269
REMARK  109  A    between atoms: _269  and  _270
REMARK  110  A    between atoms: _275  and  _277
REMARK  111  A    between atoms: _277  and  _278
REMARK  112  A    between atoms: _277  and  _280
REMARK  113  A    between atoms: _280  and  _281
REMARK  114  A    between atoms: _281  and  _282
REMARK  115  A    between atoms: _287  and  _289
REMARK  116  A    between atoms: _289  and  _290
REMARK  117  A    between atoms: _289  and  _292
REMARK  118  A    between atoms: _292  and  _293
REMARK  119  A    between atoms: _298  and  _300
REMARK  120  A    between atoms: _300  and  _301
REMARK  121  A    between atoms: _300  and  _303
REMARK  122  A    between atoms: _303  and  _304
REMARK  123  A    between atoms: _314  and  _316
REMARK  124  A    between atoms: _316  and  _317
REMARK  125  A    between atoms: _316  and  _319
REMARK  126  A    between atoms: _322  and  _324
REMARK  127  A    between atoms: _324  and  _325
REMARK  128  A    between atoms: _328  and  _330
REMARK  129  A    between atoms: _330  and  _331
REMARK  130  A    between atoms: _330  and  _333
REMARK  131  A    between atoms: _333  and  _334
REMARK  132  A    between atoms: _334  and  _335
REMARK  133  A    between atoms: _338  and  _340
REMARK  134  A    between atoms: _340  and  _341
REMARK  135  A    between atoms: _340  and  _343
REMARK  136  A    between atoms: _343  and  _344
REMARK  137  A    between atoms: _344  and  _345
REMARK  138  A    between atoms: _351  and  _352
REMARK  139  A    between atoms: _357  and  _359
REMARK  140  A    between atoms: _359  and  _360
REMARK  141  A    between atoms: _359  and  _362
REMARK  142  A    between atoms: _362  and  _363
REMARK  143  A    between atoms: _365  and  _367
REMARK  144  A    between atoms: _367  and  _368
REMARK  145  A    between atoms: _367  and  _370
REMARK  146  A    between atoms: _370  and  _371
REMARK  147  A    between atoms: _374  and  _376
REMARK  148  A    between atoms: _376  and  _377
REMARK  149  A    between atoms: _379  and  _381
REMARK  150  A    between atoms: _381  and  _382
REMARK  151  A    between atoms: _381  and  _384
REMARK  152  A    between atoms: _387  and  _389
REMARK  153  A    between atoms: _389  and  _390
REMARK  154  A    between atoms: _392  and  _394
REMARK  155  A    between atoms: _394  and  _395
REMARK  156  A    between atoms: _394  and  _397
REMARK  157  A    between atoms: _397  and  _398
REMARK  158  A    between atoms: _403  and  _404
REMARK  159  A    between atoms: _406  and  _408
REMARK  160  A    between atoms: _408  and  _409
REMARK  161  A    between atoms: _408  and  _411
REMARK  162  A    between atoms: _411  and  _412
REMARK  163  A    between atoms: _412  and  _413
REMARK  164  A    between atoms: _416  and  _418
REMARK  165  A    between atoms: _418  and  _419
REMARK  166  A    between atoms: _418  and  _421
REMARK  167  A    between atoms: _421  and  _422
REMARK  168  A    between atoms: _426  and  _427
REMARK  169  A    between atoms: _432  and  _434
REMARK  170  A    between atoms: _434  and  _435
REMARK  171  A    between atoms: _434  and  _437
REMARK  172  A    between atoms: _437  and  _438
REMARK  173  A    between atoms: _440  and  _442
REMARK  174  A    between atoms: _442  and  _443
REMARK  175  A    between atoms: _442  and  _445
REMARK  176  A    between atoms: _445  and  _446
REMARK  177  A    between atoms: _449  and  _451
REMARK  178  A    between atoms: _451  and  _452
REMARK  179  A    between atoms: _451  and  _454
REMARK  180  A    between atoms: _457  and  _459
REMARK  181  A    between atoms: _459  and  _460
REMARK  182  A    between atoms: _459  and  _462
REMARK  183  A    between atoms: _462  and  _463
REMARK  184  A    between atoms: _466  and  _468
REMARK  185  A    between atoms: _468  and  _469
REMARK  186  A    between atoms: _468  and  _471
REMARK  187  A    between atoms: _471  and  _472
REMARK  188  A    between atoms: _474  and  _476
REMARK  189  A    between atoms: _476  and  _477
REMARK  190  A    between atoms: _480  and  _482
REMARK  191  A    between atoms: _482  and  _483
REMARK  192  A    between atoms: _482  and  _485
REMARK  193  A    between atoms: _485  and  _486
REMARK  194  A    between atoms: _486  and  _487
REMARK  195  A    between atoms: _489  and  _491
REMARK  196  A    between atoms: _491  and  _492
REMARK  197  A    between atoms: _491  and  _494
REMARK  198  A    between atoms: _494  and  _495
REMARK  199  A    between atoms: _498  and  _500
REMARK  200  A    between atoms: _500  and  _501
REMARK  201  A    between atoms: _500  and  _503
REMARK  202  A    between atoms: _503  and  _504
REMARK  203  A    between atoms: _504  and  _505
REMARK  204  A    between atoms: _505  and  _506
REMARK                            x       y       z     vdW  Elec       q    Type
REMARK                         _______ _______ _______ _____ _____    ______ ____
ROOT
ATOM      1  C   GLN A   1      11.302  66.159  -4.400  0.00  0.00    +0.238 C 
ATOM      2  O   GLN A   1      10.720  65.470  -3.575  0.00  0.00    -0.274 OA
ATOM      3  N   ASN A   2      10.662  67.025  -5.176  0.00  0.00    -0.298 N 
ATOM      4  H   ASN A   2      11.195  67.575  -5.879  0.00  0.00    +0.150 HD
ENDROOT
BRANCH   1   5
ATOM      5  CA  GLN A   1      12.816  66.026  -4.610  0.00  0.00    +0.145 C 
BRANCH   5   6
ATOM      6  N   GLN A   1      13.106  65.960  -6.044  0.00  0.00    -0.238 NA
ATOM      7  H   GLN A   1      13.710  66.690  -6.473  0.00  0.00    +0.142 HD
ENDBRANCH   5   6
BRANCH   5   8
ATOM      8  CB  GLN A   1      13.564  67.191  -3.964  0.00  0.00    +0.036 C 
BRANCH   8   9
ATOM      9  CG  GLN A   1      13.201  67.485  -2.505  0.00  0.00    +0.087 C 
BRANCH   9  10
ATOM     10  CD  GLN A   1      14.162  68.486  -1.862  0.00  0.00    +0.219 C 
ATOM     11  OE1 GLN A   1      14.986  68.120  -1.013  0.00  0.00    -0.275 OA
ATOM     12  NE2 GLN A   1      14.065  69.752  -2.269  0.00  0.00    -0.329 N 
ATOM     13 HE21 GLN A   1      14.696  70.476  -1.871  0.00  0.00    +0.145 HD
ATOM     14 HE22 GLN A   1      13.358  70.015  -2.985  0.00  0.00    +0.145 HD
ENDBRANCH   9  10
ENDBRANCH   8   9
ENDBRANCH   5   8
ENDBRANCH   1   5
BRANCH   3  15
ATOM     15  CA  ASN A   2       9.219  67.215  -5.055  0.00  0.00    +0.146 C 
BRANCH  15  16
ATOM     16  C   ASN A   2       8.404  65.992  -5.444  0.00  0.00    +0.227 C 
ATOM     17  O   ASN A   2       7.420  65.660  -4.778  0.00  0.00    -0.286 OA
ENDBRANCH  15  16
BRANCH  15  18
ATOM     18  CB  ASN A   2       8.783  68.421  -5.881  0.00  0.00    +0.112 C 
BRANCH  18  19
ATOM     19  CG  ASN A   2       9.018  69.684  -5.154  0.00  0.00    +0.222 C 
ATOM     20  OD1 ASN A   2       9.167  69.672  -3.933  0.00  0.00    -0.275 OA
ATOM     21  ND2 ASN A   2       9.042  70.787  -5.860  0.00  0.00    -0.329 N 
ATOM     22 HD21 ASN A   2       9.192  71.702  -5.390  0.00  0.00    +0.145 HD
ATOM     23 HD22 ASN A   2       8.911  70.747  -6.891  0.00  0.00    +0.145 HD
ENDBRANCH  18  19
ENDBRANCH  15  18
ENDBRANCH   3  15
TORSDOF 9
REMARK  Name = ../refined-set-2016/4p5d/4p5d_pocket.pdb
REMARK  204 active torsions:
REMARK  status: ('A' for Active; 'I' for Inactive)
REMARK    1  A    between atoms: _1  and  _3
REMARK    2  A    between atoms: _3  and  _4
REMARK    3  A    between atoms: _3  and  _6
REMARK    4  A    between atoms: _6  and  _7
REMARK    5  A    between atoms: _12  and  _13
REMARK    6  A    between atoms: _15  and  _17
REMARK    7  A    between atoms: _17  and  _18
REMARK    8  A    between atoms: _17  and  _20
REMARK    9  A    between atoms: _20  and  _21
REMARK   10  A    between atoms: _27  and  _29
REMARK   11  A    between atoms: _29  and  _30
REMARK   12  A    between atoms: _29  and  _32
REMARK   13  A    between atoms: _34  and  _36
REMARK   14  A    between atoms: _36  and  _37
REMARK   15  A    between atoms: _39  and  _41
REMARK   16  A    between atoms: _41  and  _42
REMARK   17  A    between atoms: _41  and  _44
REMARK   18  A    between atoms: _44  and  _45
REMARK   19  A    between atoms: _47  and  _49
REMARK   20  A    between atoms: _49  and  _50
REMARK   21  A    between atoms: _49  and  _52
REMARK   22  A    between atoms: _52  and  _53
REMARK   23  A    between atoms: _56  and  _58
REMARK   24  A    between atoms: _58  and  _59
REMARK   25  A    between atoms: _58  and  _61
REMARK   26  A    between atoms: _61  and  _62
REMARK   27  A    between atoms: _62  and  _63
REMARK   28  A    between atoms: _63  and  _64
REMARK   29  A    between atoms: _73  and  _75
REMARK   30  A    between atoms: _75  and  _76
REMARK   31  A    between atoms: _78  and  _80
REMARK   32  A    between atoms: _80  and  _81
REMARK   33  A    between atoms: _83  and  _85
REMARK   34  A    between atoms: _85  and  _86
REMARK   35  A    between atoms: _85  and  _88
REMARK   36  A    between atoms: _88  and  _89
REMARK   37  A    between atoms: _89  and  _90
REMARK   38  A    between atoms: _90  and  _91
REMARK   39  A    between atoms: _100  and  _102
REMARK   40  A    between atoms: _102  and  _103
REMARK   41  A    between atoms: _102  and  _105
REMARK   42  A    between atoms: _105  and  _106
REMARK   43  A    between atoms: _111  and  _112
REMARK   44  A    between atoms: _114  and  _116
REMARK   45  A    between atoms: _116  and  _117
REMARK   46  A    between atoms: _116  and  _119
REMARK   47  A    between atoms: _119  and  _120
REMARK   48  A    between atoms: _123  and  _125
REMARK   49  A    between atoms: _125  and  _126
REMARK   50  A    between atoms: _125  and  _128
REMARK   51  A    between atoms: _128  and  _129
REMARK   52  A    between atoms: _129  and  _130
REMARK   53  A    between atoms: _133  and  _135
REMARK   54  A    between atoms: _135  and  _136
REMARK   55  A    between atoms: _135  and  _138
REMARK   56  A    between atoms: _138  and  _139
REMARK   57  A    between atoms: _144  and  _146
REMARK   58  A    between atoms: _146  and  _147
REMARK   59  A    between atoms: _146  and  _149
REMARK   60  A    between atoms: _152  and  _154
REMARK   61  A    between atoms: _154  and  _155
REMARK   62  A    between atoms: _154  and  _157
REMARK   63  A    between atoms: _157  and  _158
REMARK   64  A    between atoms: _161  and  _163
REMARK   65  A    between atoms: _163  and  _164
REMARK   66  A    between atoms: _163  and  _166
REMARK   67  A    between atoms: _166  and  _167
REMARK   68  A    between atoms: _167  and  _168
REMARK   69  A    between atoms: _172  and  _173
REMARK   70  A    between atoms: _178  and  _180
REMARK   71  A    between atoms: _180  and  _181
REMARK   72  A    between atoms: _180  and  _183
REMARK   73  A    between atoms: _183  and  _184
REMARK   74  A    between atoms: _187  and  _189
REMARK   75  A    between atoms: _189  and  _190
REMARK   76  A    between atoms: _192  and  _194
REMARK   77  A    between atoms: _194  and  _195
REMARK   78  A    between atoms: _194  and  _197
REMARK   79  A    between atoms: _197  and  _198
REMARK   80  A    between atoms: _198  and  _199
REMARK   81  A    between atoms: _202  and  _204
REMARK   82  A    between atoms: _204  and  _205
REMARK   83  A    between atoms: _204  and  _207
REMARK   84  A    between atoms: _207  and  _208
REMARK   85  A    between atoms: _208  and  _209
REMARK   86  A    between atoms: _212  and  _214
REMARK   87  A    between atoms: _214  and  _215
REMARK   88  A    between atoms: _218  and  _220
REMARK   89  A    between atoms: _220  and  _221
REMARK   90  A    between atoms: _224  and  _226
REMARK   91  A    between atoms: _226  and  _227
REMARK   92  A    between atoms: _229  and  _231
REMARK   93  A    between atoms: _231  and  _232
REMARK   94  A    between atoms: _234  and  _236
REMARK   95  A    between atoms: _236  and  _237
REMARK   96  A    between atoms: _236  and  _239
REMARK   97  A    between atoms: _239  and  _240
REMARK   98  A    between atoms: _243  and  _245
REMARK   99  A    between atoms: _245  and  _246
REMARK  100  A    between atoms: _245  and  _248
REMARK  101  A    between atoms: _248  and  _249
REMARK  102  A    between atoms: _255  and  _257
REMARK  103  A    between atoms: _257  and  _258
REMARK  104  A    between atoms: _257  and  _260
REMARK  105  A    between atoms: _260  and  _261
REMARK  106  A    between atoms: _264  and  _266
REMARK  107  A    between atoms: _266  and  _267
REMARK  108  A    between atoms: _266  and  _269
REMARK  109  A    between atoms: _269  and  _270
REMARK  110  A    between atoms: _275  and  _277
REMARK  111  A    between atoms: _277  and  _278
REMARK  112  A    between atoms: _277  and  _280
REMARK  113  A    between atoms: _280  and  _281
REMARK  114  A    between atoms: _281  and  _282
REMARK  115  A    between atoms: _287  and  _289
REMARK  116  A    between atoms: _289  and  _290
REMARK  117  A    between atoms: _289  and  _292
REMARK  118  A    between atoms: _292  and  _293
REMARK  119  A    between atoms: _298  and  _300
REMARK  120  A    between atoms: _300  and  _301
REMARK  121  A    between atoms: _300  and  _303
REMARK  122  A    between atoms: _303  and  _304
REMARK  123  A    between atoms: _314  and  _316
REMARK  124  A    between atoms: _316  and  _317
REMARK  125  A    between atoms: _316  and  _319
REMARK  126  A    between atoms: _322  and  _324
REMARK  127  A    between atoms: _324  and  _325
REMARK  128  A    between atoms: _328  and  _330
REMARK  129  A    between atoms: _330  and  _331
REMARK  130  A    between atoms: _330  and  _333
REMARK  131  A    between atoms: _333  and  _334
REMARK  132  A    between atoms: _334  and  _335
REMARK  133  A    between atoms: _338  and  _340
REMARK  134  A    between atoms: _340  and  _341
REMARK  135  A    between atoms: _340  and  _343
REMARK  136  A    between atoms: _343  and  _344
REMARK  137  A    between atoms: _344  and  _345
REMARK  138  A    between atoms: _351  and  _352
REMARK  139  A    between atoms: _357  and  _359
REMARK  140  A    between atoms: _359  and  _360
REMARK  141  A    between atoms: _359  and  _362
REMARK  142  A    between atoms: _362  and  _363
REMARK  143  A    between atoms: _365  and  _367
REMARK  144  A    between atoms: _367  and  _368
REMARK  145  A    between atoms: _367  and  _370
REMARK  146  A    between atoms: _370  and  _371
REMARK  147  A    between atoms: _374  and  _376
REMARK  148  A    between atoms: _376  and  _377
REMARK  149  A    between atoms: _379  and  _381
REMARK  150  A    between atoms: _381  and  _382
REMARK  151  A    between atoms: _381  and  _384
REMARK  152  A    between atoms: _387  and  _389
REMARK  153  A    between atoms: _389  and  _390
REMARK  154  A    between atoms: _392  and  _394
REMARK  155  A    between atoms: _394  and  _395
REMARK  156  A    between atoms: _394  and  _397
REMARK  157  A    between atoms: _397  and  _398
REMARK  158  A    between atoms: _403  and  _404
REMARK  159  A    between atoms: _406  and  _408
REMARK  160  A    between atoms: _408  and  _409
REMARK  161  A    between atoms: _408  and  _411
REMARK  162  A    between atoms: _411  and  _412
REMARK  163  A    between atoms: _412  and  _413
REMARK  164  A    between atoms: _416  and  _418
REMARK  165  A    between atoms: _418  and  _419
REMARK  166  A    between atoms: _418  and  _421
REMARK  167  A    between atoms: _421  and  _422
REMARK  168  A    between atoms: _426  and  _427
REMARK  169  A    between atoms: _432  and  _434
REMARK  170  A    between atoms: _434  and  _435
REMARK  171  A    between atoms: _434  and  _437
REMARK  172  A    between atoms: _437  and  _438
REMARK  173  A    between atoms: _440  and  _442
REMARK  174  A    between atoms: _442  and  _443
REMARK  175  A    between atoms: _442  and  _445
REMARK  176  A    between atoms: _445  and  _446
REMARK  177  A    between atoms: _449  and  _451
REMARK  178  A    between atoms: _451  and  _452
REMARK  179  A    between atoms: _451  and  _454
REMARK  180  A    between atoms: _457  and  _459
REMARK  181  A    between atoms: _459  and  _460
REMARK  182  A    between atoms: _459  and  _462
REMARK  183  A    between atoms: _462  and  _463
REMARK  184  A    between atoms: _466  and  _468
REMARK  185  A    between atoms: _468  and  _469
REMARK  186  A    between atoms: _468  and  _471
REMARK  187  A    between atoms: _471  and  _472
REMARK  188  A    between atoms: _474  and  _476
REMARK  189  A    between atoms: _476  and  _477
REMARK  190  A    between atoms: _480  and  _482
REMARK  191  A    between atoms: _482  and  _483
REMARK  192  A    between atoms: _482  and  _485
REMARK  193  A    between atoms: _485  and  _486
REMARK  194  A    between atoms: _486  and  _487
REMARK  195  A    between atoms: _489  and  _491
REMARK  196  A    between atoms: _491  and  _492
REMARK  197  A    between atoms: _491  and  _494
REMARK  198  A    between atoms: _494  and  _495
REMARK  199  A    between atoms: _498  and  _500
REMARK  200  A    between atoms: _500  and  _501
REMARK  201  A    between atoms: _500  and  _503
REMARK  202  A    between atoms: _503  and  _504
REMARK  203  A    between atoms: _504  and  _505
REMARK  204  A    between atoms: _505  and  _506
REMARK                            x       y       z     vdW  Elec       q    Type
REMARK                         _______ _______ _______ _____ _____    ______ ____
ROOT
ATOM      1  CG  TRP A   1       8.883  65.759  -0.385  0.00  0.00    -0.002 A 
ATOM      2  CD1 TRP A   1       9.443  64.922   0.532  0.00  0.00    +0.068 A 
ATOM      3  NE1 TRP A   1      10.500  65.549   1.162  0.00  0.00    -0.352 N 
ATOM      4  HE1 TRP A   1      11.100  65.130   1.901  0.00  0.00    +0.166 HD
ATOM      5  CE2 TRP A   1      10.628  66.814   0.653  0.00  0.00    +0.056 A 
ATOM      6  CZ2 TRP A   1      11.541  67.818   0.963  0.00  0.00    +0.017 A 
ATOM      7  CH2 TRP A   1      11.429  68.999   0.286  0.00  0.00    +0.001 A 
ATOM      8  CZ3 TRP A   1      10.442  69.194  -0.682  0.00  0.00    +0.000 A 
ATOM      9  CE3 TRP A   1       9.538  68.202  -0.995  0.00  0.00    +0.001 A 
ATOM     10  CD2 TRP A   1       9.627  66.981  -0.325  0.00  0.00    +0.013 A 
ENDROOT
BRANCH   1  11
ATOM     11  CB  TRP A   1       7.689  65.476  -1.269  0.00  0.00    +0.053 C 
BRANCH  11  12
ATOM     12  CA  TRP A   1       7.478  63.997  -1.583  0.00  0.00    +0.137 C 
BRANCH  12  13
ATOM     13  N   TRP A   1       8.414  63.566  -2.613  0.00  0.00    -0.239 NA
ATOM     14  H   TRP A   1       9.003  64.279  -3.089  0.00  0.00    +0.142 HD
ENDBRANCH  12  13
BRANCH  12  15
ATOM     15  C   TRP A   1       6.035  63.750  -2.017  0.00  0.00    +0.224 C 
ATOM     16  O   TRP A   1       5.190  63.320  -1.223  0.00  0.00    -0.287 OA
ENDBRANCH  12  15
ENDBRANCH  11  12
ENDBRANCH   1  11
TORSDOF 4
REMARK  Name = ../refined-set-2016/4p5d/4p5d_pocket.pdb
REMARK  204 active torsions:
REMARK  status: ('A' for Active; 'I' for Inactive)
REMARK    1  A    between atoms: _1  and  _3
REMARK    2  A    between atoms: _3  and  _4
REMARK    3  A    between atoms: _3  and  _6
REMARK    4  A    between atoms: _6  and  _7
REMARK    5  A    between atoms: _12  and  _13
REMARK    6  A    between atoms: _15  and  _17
REMARK    7  A    between atoms: _17  and  _18
REMARK    8  A    between atoms: _17  and  _20
REMARK    9  A    between atoms: _20  and  _21
REMARK   10  A    between atoms: _27  and  _29
REMARK   11  A    between atoms: _29  and  _30
REMARK   12  A    between atoms: _29  and  _32
REMARK   13  A    between atoms: _34  and  _36
REMARK   14  A    between atoms: _36  and  _37
REMARK   15  A    between atoms: _39  and  _41
REMARK   16  A    between atoms: _41  and  _42
REMARK   17  A    between atoms: _41  and  _44
REMARK   18  A    between atoms: _44  and  _45
REMARK   19  A    between atoms: _47  and  _49
REMARK   20  A    between atoms: _49  and  _50
REMARK   21  A    between atoms: _49  and  _52
REMARK   22  A    between atoms: _52  and  _53
REMARK   23  A    between atoms: _56  and  _58
REMARK   24  A    between atoms: _58  and  _59
REMARK   25  A    between atoms: _58  and  _61
REMARK   26  A    between atoms: _61  and  _62
REMARK   27  A    between atoms: _62  and  _63
REMARK   28  A    between atoms: _63  and  _64
REMARK   29  A    between atoms: _73  and  _75
REMARK   30  A    between atoms: _75  and  _76
REMARK   31  A    between atoms: _78  and  _80
REMARK   32  A    between atoms: _80  and  _81
REMARK   33  A    between atoms: _83  and  _85
REMARK   34  A    between atoms: _85  and  _86
REMARK   35  A    between atoms: _85  and  _88
REMARK   36  A    between atoms: _88  and  _89
REMARK   37  A    between atoms: _89  and  _90
REMARK   38  A    between atoms: _90  and  _91
REMARK   39  A    between atoms: _100  and  _102
REMARK   40  A    between atoms: _102  and  _103
REMARK   41  A    between atoms: _102  and  _105
REMARK   42  A    between atoms: _105  and  _106
REMARK   43  A    between atoms: _111  and  _112
REMARK   44  A    between atoms: _114  and  _116
REMARK   45  A    between atoms: _116  and  _117
REMARK   46  A    between atoms: _116  and  _119
REMARK   47  A    between atoms: _119  and  _120
REMARK   48  A    between atoms: _123  and  _125
REMARK   49  A    between atoms: _125  and  _126
REMARK   50  A    between atoms: _125  and  _128
REMARK   51  A    between atoms: _128  and  _129
REMARK   52  A    between atoms: _129  and  _130
REMARK   53  A    between atoms: _133  and  _135
REMARK   54  A    between atoms: _135  and  _136
REMARK   55  A    between atoms: _135  and  _138
REMARK   56  A    between atoms: _138  and  _139
REMARK   57  A    between atoms: _144  and  _146
REMARK   58  A    between atoms: _146  and  _147
REMARK   59  A    between atoms: _146  and  _149
REMARK   60  A    between atoms: _152  and  _154
REMARK   61  A    between atoms: _154  and  _155
REMARK   62  A    between atoms: _154  and  _157
REMARK   63  A    between atoms: _157  and  _158
REMARK   64  A    between atoms: _161  and  _163
REMARK   65  A    between atoms: _163  and  _164
REMARK   66  A    between atoms: _163  and  _166
REMARK   67  A    between atoms: _166  and  _167
REMARK   68  A    between atoms: _167  and  _168
REMARK   69  A    between atoms: _172  and  _173
REMARK   70  A    between atoms: _178  and  _180
REMARK   71  A    between atoms: _180  and  _181
REMARK   72  A    between atoms: _180  and  _183
REMARK   73  A    between atoms: _183  and  _184
REMARK   74  A    between atoms: _187  and  _189
REMARK   75  A    between atoms: _189  and  _190
REMARK   76  A    between atoms: _192  and  _194
REMARK   77  A    between atoms: _194  and  _195
REMARK   78  A    between atoms: _194  and  _197
REMARK   79  A    between atoms: _197  and  _198
REMARK   80  A    between atoms: _198  and  _199
REMARK   81  A    between atoms: _202  and  _204
REMARK   82  A    between atoms: _204  and  _205
REMARK   83  A    between atoms: _204  and  _207
REMARK   84  A    between atoms: _207  and  _208
REMARK   85  A    between atoms: _208  and  _209
REMARK   86  A    between atoms: _212  and  _214
REMARK   87  A    between atoms: _214  and  _215
REMARK   88  A    between atoms: _218  and  _220
REMARK   89  A    between atoms: _220  and  _221
REMARK   90  A    between atoms: _224  and  _226
REMARK   91  A    between atoms: _226  and  _227
REMARK   92  A    between atoms: _229  and  _231
REMARK   93  A    between atoms: _231  and  _232
REMARK   94  A    between atoms: _234  and  _236
REMARK   95  A    between atoms: _236  and  _237
REMARK   96  A    between atoms: _236  and  _239
REMARK   97  A    between atoms: _239  and  _240
REMARK   98  A    between atoms: _243  and  _245
REMARK   99  A    between atoms: _245  and  _246
REMARK  100  A    between atoms: _245  and  _248
REMARK  101  A    between atoms: _248  and  _249
REMARK  102  A    between atoms: _255  and  _257
REMARK  103  A    between atoms: _257  and  _258
REMARK  104  A    between atoms: _257  and  _260
REMARK  105  A    between atoms: _260  and  _261
REMARK  106  A    between atoms: _264  and  _266
REMARK  107  A    between atoms: _266  and  _267
REMARK  108  A    between atoms: _266  and  _269
REMARK  109  A    between atoms: _269  and  _270
REMARK  110  A    between atoms: _275  and  _277
REMARK  111  A    between atoms: _277  and  _278
REMARK  112  A    between atoms: _277  and  _280
REMARK  113  A    between atoms: _280  and  _281
REMARK  114  A    between atoms: _281  and  _282
REMARK  115  A    between atoms: _287  and  _289
REMARK  116  A    between atoms: _289  and  _290
REMARK  117  A    between atoms: _289  and  _292
REMARK  118  A    between atoms: _292  and  _293
REMARK  119  A    between atoms: _298  and  _300
REMARK  120  A    between atoms: _300  and  _301
REMARK  121  A    between atoms: _300  and  _303
REMARK  122  A    between atoms: _303  and  _304
REMARK  123  A    between atoms: _314  and  _316
REMARK  124  A    between atoms: _316  and  _317
REMARK  125  A    between atoms: _316  and  _319
REMARK  126  A    between atoms: _322  and  _324
REMARK  127  A    between atoms: _324  and  _325
REMARK  128  A    between atoms: _328  and  _330
REMARK  129  A    between atoms: _330  and  _331
REMARK  130  A    between atoms: _330  and  _333
REMARK  131  A    between atoms: _333  and  _334
REMARK  132  A    between atoms: _334  and  _335
REMARK  133  A    between atoms: _338  and  _340
REMARK  134  A    between atoms: _340  and  _341
REMARK  135  A    between atoms: _340  and  _343
REMARK  136  A    between atoms: _343  and  _344
REMARK  137  A    between atoms: _344  and  _345
REMARK  138  A    between atoms: _351  and  _352
REMARK  139  A    between atoms: _357  and  _359
REMARK  140  A    between atoms: _359  and  _360
REMARK  141  A    between atoms: _359  and  _362
REMARK  142  A    between atoms: _362  and  _363
REMARK  143  A    between atoms: _365  and  _367
REMARK  144  A    between atoms: _367  and  _368
REMARK  145  A    between atoms: _367  and  _370
REMARK  146  A    between atoms: _370  and  _371
REMARK  147  A    between atoms: _374  and  _376
REMARK  148  A    between atoms: _376  and  _377
REMARK  149  A    between atoms: _379  and  _381
REMARK  150  A    between atoms: _381  and  _382
REMARK  151  A    between atoms: _381  and  _384
REMARK  152  A    between atoms: _387  and  _389
REMARK  153  A    between atoms: _389  and  _390
REMARK  154  A    between atoms: _392  and  _394
REMARK  155  A    between atoms: _394  and  _395
REMARK  156  A    between atoms: _394  and  _397
REMARK  157  A    between atoms: _397  and  _398
REMARK  158  A    between atoms: _403  and  _404
REMARK  159  A    between atoms: _406  and  _408
REMARK  160  A    between atoms: _408  and  _409
REMARK  161  A    between atoms: _408  and  _411
REMARK  162  A    between atoms: _411  and  _412
REMARK  163  A    between atoms: _412  and  _413
REMARK  164  A    between atoms: _416  and  _418
REMARK  165  A    between atoms: _418  and  _419
REMARK  166  A    between atoms: _418  and  _421
REMARK  167  A    between atoms: _421  and  _422
REMARK  168  A    between atoms: _426  and  _427
REMARK  169  A    between atoms: _432  and  _434
REMARK  170  A    between atoms: _434  and  _435
REMARK  171  A    between atoms: _434  and  _437
REMARK  172  A    between atoms: _437  and  _438
REMARK  173  A    between atoms: _440  and  _442
REMARK  174  A    between atoms: _442  and  _443
REMARK  175  A    between atoms: _442  and  _445
REMARK  176  A    between atoms: _445  and  _446
REMARK  177  A    between atoms: _449  and  _451
REMARK  178  A    between atoms: _451  and  _452
REMARK  179  A    between atoms: _451  and  _454
REMARK  180  A    between atoms: _457  and  _459
REMARK  181  A    between atoms: _459  and  _460
REMARK  182  A    between atoms: _459  and  _462
REMARK  183  A    between atoms: _462  and  _463
REMARK  184  A    between atoms: _466  and  _468
REMARK  185  A    between atoms: _468  and  _469
REMARK  186  A    between atoms: _468  and  _471
REMARK  187  A    between atoms: _471  and  _472
REMARK  188  A    between atoms: _474  and  _476
REMARK  189  A    between atoms: _476  and  _477
REMARK  190  A    between atoms: _480  and  _482
REMARK  191  A    between atoms: _482  and  _483
REMARK  192  A    between atoms: _482  and  _485
REMARK  193  A    between atoms: _485  and  _486
REMARK  194  A    between atoms: _486  and  _487
REMARK  195  A    between atoms: _489  and  _491
REMARK  196  A    between atoms: _491  and  _492
REMARK  197  A    between atoms: _491  and  _494
REMARK  198  A    between atoms: _494  and  _495
REMARK  199  A    between atoms: _498  and  _500
REMARK  200  A    between atoms: _500  and  _501
REMARK  201  A    between atoms: _500  and  _503
REMARK  202  A    between atoms: _503  and  _504
REMARK  203  A    between atoms: _504  and  _505
REMARK  204  A    between atoms: _505  and  _506
REMARK                            x       y       z     vdW  Elec       q    Type
REMARK                         _______ _______ _______ _____ _____    ______ ____
ROOT
ATOM      1  CA  ALA A   2      -3.286  73.287  -3.458  0.00  0.00    +0.149 C 
ATOM      2  CB  ALA A   2      -3.264  72.811  -4.913  0.00  0.00    +0.031 C 
ENDROOT
BRANCH   1   5
ATOM      3  C   VAL A   1      -2.987  71.605  -1.770  0.00  0.00    +0.238 C 
ATOM      4  O   VAL A   1      -1.788  71.884  -1.707  0.00  0.00    -0.274 OA
ATOM      5  N   ALA A   2      -3.814  72.245  -2.584  0.00  0.00    -0.297 N 
ATOM      6  H   ALA A   2      -4.826  72.008  -2.600  0.00  0.00    +0.150 HD
BRANCH   3   7
ATOM      7  CA  VAL A   1      -3.576  70.498  -0.902  0.00  0.00    +0.145 C 
BRANCH   7   8
ATOM      8  CB  VAL A   1      -3.633  70.971   0.580  0.00  0.00    +0.025 C 
ATOM      9  CG2 VAL A   1      -4.199  69.882   1.484  0.00  0.00    +0.002 C 
ATOM     10  CG1 VAL A   1      -4.473  72.222   0.712  0.00  0.00    +0.002 C 
ENDBRANCH   7   8
BRANCH   7  11
ATOM     11  N   VAL A   1      -2.780  69.281  -1.063  0.00  0.00    -0.238 NA
ATOM     12  H   VAL A   1      -1.764  69.302  -0.841  0.00  0.00    +0.142 HD
ENDBRANCH   7  11
ENDBRANCH   3   7
ENDBRANCH   1   5
BRANCH   1  13
ATOM     13  C   ALA A   2      -4.085  74.571  -3.334  0.00  0.00    +0.241 C 
ATOM     14  N   GLU A   3      -3.394  75.702  -3.220  0.00  0.00    -0.298 N 
ATOM     15  H   GLU A   3      -2.374  75.680  -3.019  0.00  0.00    +0.150 HD
ATOM     16  O   ALA A   2      -5.317  74.541  -3.329  0.00  0.00    -0.273 OA
BRANCH  14  17
ATOM     17  CA  GLU A   3      -4.088  76.968  -3.381  0.00  0.00    +0.137 C 
BRANCH  17  18
ATOM     18  C   GLU A   3      -3.926  77.345  -4.854  0.00  0.00    +0.227 C 
ATOM     19  O   GLU A   3      -2.826  77.655  -5.315  0.00  0.00    -0.286 OA
ENDBRANCH  17  18
BRANCH  17  20
ATOM     20  CB  GLU A   3      -3.528  78.040  -2.435  0.00  0.00    +0.039 C 
BRANCH  20  21
ATOM     21  CG  GLU A   3      -4.585  79.003  -1.877  0.00  0.00    +0.116 C 
BRANCH  21  22
ATOM     22  CD  GLU A   3      -5.137  79.962  -2.929  0.00  0.00    +0.365 C 
ATOM     23  OE2 GLU A   3      -6.067  80.731  -2.601  0.00  0.00    -0.246 OA
ATOM     24  OE1 GLU A   3      -4.637  79.960  -4.078  0.00  0.00    -0.246 OA
ENDBRANCH  21  22
ENDBRANCH  20  21
ENDBRANCH  17  20
ENDBRANCH  14  17
ENDBRANCH   1  13
TORSDOF 10
REMARK  Name = ../refined-set-2016/4p5d/4p5d_pocket.pdb
REMARK  204 active torsions:
REMARK  status: ('A' for Active; 'I' for Inactive)
REMARK    1  A    between atoms: _1  and  _3
REMARK    2  A    between atoms: _3  and  _4
REMARK    3  A    between atoms: _3  and  _6
REMARK    4  A    between atoms: _6  and  _7
REMARK    5  A    between atoms: _12  and  _13
REMARK    6  A    between atoms: _15  and  _17
REMARK    7  A    between atoms: _17  and  _18
REMARK    8  A    between atoms: _17  and  _20
REMARK    9  A    between atoms: _20  and  _21
REMARK   10  A    between atoms: _27  and  _29
REMARK   11  A    between atoms: _29  and  _30
REMARK   12  A    between atoms: _29  and  _32
REMARK   13  A    between atoms: _34  and  _36
REMARK   14  A    between atoms: _36  and  _37
REMARK   15  A    between atoms: _39  and  _41
REMARK   16  A    between atoms: _41  and  _42
REMARK   17  A    between atoms: _41  and  _44
REMARK   18  A    between atoms: _44  and  _45
REMARK   19  A    between atoms: _47  and  _49
REMARK   20  A    between atoms: _49  and  _50
REMARK   21  A    between atoms: _49  and  _52
REMARK   22  A    between atoms: _52  and  _53
REMARK   23  A    between atoms: _56  and  _58
REMARK   24  A    between atoms: _58  and  _59
REMARK   25  A    between atoms: _58  and  _61
REMARK   26  A    between atoms: _61  and  _62
REMARK   27  A    between atoms: _62  and  _63
REMARK   28  A    between atoms: _63  and  _64
REMARK   29  A    between atoms: _73  and  _75
REMARK   30  A    between atoms: _75  and  _76
REMARK   31  A    between atoms: _78  and  _80
REMARK   32  A    between atoms: _80  and  _81
REMARK   33  A    between atoms: _83  and  _85
REMARK   34  A    between atoms: _85  and  _86
REMARK   35  A    between atoms: _85  and  _88
REMARK   36  A    between atoms: _88  and  _89
REMARK   37  A    between atoms: _89  and  _90
REMARK   38  A    between atoms: _90  and  _91
REMARK   39  A    between atoms: _100  and  _102
REMARK   40  A    between atoms: _102  and  _103
REMARK   41  A    between atoms: _102  and  _105
REMARK   42  A    between atoms: _105  and  _106
REMARK   43  A    between atoms: _111  and  _112
REMARK   44  A    between atoms: _114  and  _116
REMARK   45  A    between atoms: _116  and  _117
REMARK   46  A    between atoms: _116  and  _119
REMARK   47  A    between atoms: _119  and  _120
REMARK   48  A    between atoms: _123  and  _125
REMARK   49  A    between atoms: _125  and  _126
REMARK   50  A    between atoms: _125  and  _128
REMARK   51  A    between atoms: _128  and  _129
REMARK   52  A    between atoms: _129  and  _130
REMARK   53  A    between atoms: _133  and  _135
REMARK   54  A    between atoms: _135  and  _136
REMARK   55  A    between atoms: _135  and  _138
REMARK   56  A    between atoms: _138  and  _139
REMARK   57  A    between atoms: _144  and  _146
REMARK   58  A    between atoms: _146  and  _147
REMARK   59  A    between atoms: _146  and  _149
REMARK   60  A    between atoms: _152  and  _154
REMARK   61  A    between atoms: _154  and  _155
REMARK   62  A    between atoms: _154  and  _157
REMARK   63  A    between atoms: _157  and  _158
REMARK   64  A    between atoms: _161  and  _163
REMARK   65  A    between atoms: _163  and  _164
REMARK   66  A    between atoms: _163  and  _166
REMARK   67  A    between atoms: _166  and  _167
REMARK   68  A    between atoms: _167  and  _168
REMARK   69  A    between atoms: _172  and  _173
REMARK   70  A    between atoms: _178  and  _180
REMARK   71  A    between atoms: _180  and  _181
REMARK   72  A    between atoms: _180  and  _183
REMARK   73  A    between atoms: _183  and  _184
REMARK   74  A    between atoms: _187  and  _189
REMARK   75  A    between atoms: _189  and  _190
REMARK   76  A    between atoms: _192  and  _194
REMARK   77  A    between atoms: _194  and  _195
REMARK   78  A    between atoms: _194  and  _197
REMARK   79  A    between atoms: _197  and  _198
REMARK   80  A    between atoms: _198  and  _199
REMARK   81  A    between atoms: _202  and  _204
REMARK   82  A    between atoms: _204  and  _205
REMARK   83  A    between atoms: _204  and  _207
REMARK   84  A    between atoms: _207  and  _208
REMARK   85  A    between atoms: _208  and  _209
REMARK   86  A    between atoms: _212  and  _214
REMARK   87  A    between atoms: _214  and  _215
REMARK   88  A    between atoms: _218  and  _220
REMARK   89  A    between atoms: _220  and  _221
REMARK   90  A    between atoms: _224  and  _226
REMARK   91  A    between atoms: _226  and  _227
REMARK   92  A    between atoms: _229  and  _231
REMARK   93  A    between atoms: _231  and  _232
REMARK   94  A    between atoms: _234  and  _236
REMARK   95  A    between atoms: _236  and  _237
REMARK   96  A    between atoms: _236  and  _239
REMARK   97  A    between atoms: _239  and  _240
REMARK   98  A    between atoms: _243  and  _245
REMARK   99  A    between atoms: _245  and  _246
REMARK  100  A    between atoms: _245  and  _248
REMARK  101  A    between atoms: _248  and  _249
REMARK  102  A    between atoms: _255  and  _257
REMARK  103  A    between atoms: _257  and  _258
REMARK  104  A    between atoms: _257  and  _260
REMARK  105  A    between atoms: _260  and  _261
REMARK  106  A    between atoms: _264  and  _266
REMARK  107  A    between atoms: _266  and  _267
REMARK  108  A    between atoms: _266  and  _269
REMARK  109  A    between atoms: _269  and  _270
REMARK  110  A    between atoms: _275  and  _277
REMARK  111  A    between atoms: _277  and  _278
REMARK  112  A    between atoms: _277  and  _280
REMARK  113  A    between atoms: _280  and  _281
REMARK  114  A    between atoms: _281  and  _282
REMARK  115  A    between atoms: _287  and  _289
REMARK  116  A    between atoms: _289  and  _290
REMARK  117  A    between atoms: _289  and  _292
REMARK  118  A    between atoms: _292  and  _293
REMARK  119  A    between atoms: _298  and  _300
REMARK  120  A    between atoms: _300  and  _301
REMARK  121  A    between atoms: _300  and  _303
REMARK  122  A    between atoms: _303  and  _304
REMARK  123  A    between atoms: _314  and  _316
REMARK  124  A    between atoms: _316  and  _317
REMARK  125  A    between atoms: _316  and  _319
REMARK  126  A    between atoms: _322  and  _324
REMARK  127  A    between atoms: _324  and  _325
REMARK  128  A    between atoms: _328  and  _330
REMARK  129  A    between atoms: _330  and  _331
REMARK  130  A    between atoms: _330  and  _333
REMARK  131  A    between atoms: _333  and  _334
REMARK  132  A    between atoms: _334  and  _335
REMARK  133  A    between atoms: _338  and  _340
REMARK  134  A    between atoms: _340  and  _341
REMARK  135  A    between atoms: _340  and  _343
REMARK  136  A    between atoms: _343  and  _344
REMARK  137  A    between atoms: _344  and  _345
REMARK  138  A    between atoms: _351  and  _352
REMARK  139  A    between atoms: _357  and  _359
REMARK  140  A    between atoms: _359  and  _360
REMARK  141  A    between atoms: _359  and  _362
REMARK  142  A    between atoms: _362  and  _363
REMARK  143  A    between atoms: _365  and  _367
REMARK  144  A    between atoms: _367  and  _368
REMARK  145  A    between atoms: _367  and  _370
REMARK  146  A    between atoms: _370  and  _371
REMARK  147  A    between atoms: _374  and  _376
REMARK  148  A    between atoms: _376  and  _377
REMARK  149  A    between atoms: _379  and  _381
REMARK  150  A    between atoms: _381  and  _382
REMARK  151  A    between atoms: _381  and  _384
REMARK  152  A    between atoms: _387  and  _389
REMARK  153  A    between atoms: _389  and  _390
REMARK  154  A    between atoms: _392  and  _394
REMARK  155  A    between atoms: _394  and  _395
REMARK  156  A    between atoms: _394  and  _397
REMARK  157  A    between atoms: _397  and  _398
REMARK  158  A    between atoms: _403  and  _404
REMARK  159  A    between atoms: _406  and  _408
REMARK  160  A    between atoms: _408  and  _409
REMARK  161  A    between atoms: _408  and  _411
REMARK  162  A    between atoms: _411  and  _412
REMARK  163  A    between atoms: _412  and  _413
REMARK  164  A    between atoms: _416  and  _418
REMARK  165  A    between atoms: _418  and  _419
REMARK  166  A    between atoms: _418  and  _421
REMARK  167  A    between atoms: _421  and  _422
REMARK  168  A    between atoms: _426  and  _427
REMARK  169  A    between atoms: _432  and  _434
REMARK  170  A    between atoms: _434  and  _435
REMARK  171  A    between atoms: _434  and  _437
REMARK  172  A    between atoms: _437  and  _438
REMARK  173  A    between atoms: _440  and  _442
REMARK  174  A    between atoms: _442  and  _443
REMARK  175  A    between atoms: _442  and  _445
REMARK  176  A    between atoms: _445  and  _446
REMARK  177  A    between atoms: _449  and  _451
REMARK  178  A    between atoms: _451  and  _452
REMARK  179  A    between atoms: _451  and  _454
REMARK  180  A    between atoms: _457  and  _459
REMARK  181  A    between atoms: _459  and  _460
REMARK  182  A    between atoms: _459  and  _462
REMARK  183  A    between atoms: _462  and  _463
REMARK  184  A    between atoms: _466  and  _468
REMARK  185  A    between atoms: _468  and  _469
REMARK  186  A    between atoms: _468  and  _471
REMARK  187  A    between atoms: _471  and  _472
REMARK  188  A    between atoms: _474  and  _476
REMARK  189  A    between atoms: _476  and  _477
REMARK  190  A    between atoms: _480  and  _482
REMARK  191  A    between atoms: _482  and  _483
REMARK  192  A    between atoms: _482  and  _485
REMARK  193  A    between atoms: _485  and  _486
REMARK  194  A    between atoms: _486  and  _487
REMARK  195  A    between atoms: _489  and  _491
REMARK  196  A    between atoms: _491  and  _492
REMARK  197  A    between atoms: _491  and  _494
REMARK  198  A    between atoms: _494  and  _495
REMARK  199  A    between atoms: _498  and  _500
REMARK  200  A    between atoms: _500  and  _501
REMARK  201  A    between atoms: _500  and  _503
REMARK  202  A    between atoms: _503  and  _504
REMARK  203  A    between atoms: _504  and  _505
REMARK  204  A    between atoms: _505  and  _506
REMARK                            x       y       z     vdW  Elec       q    Type
REMARK                         _______ _______ _______ _____ _____    ______ ____
ROOT
ATOM      1  CA  VAL A   6       1.005  73.949  -9.278  0.00  0.00    +0.149 C 
ENDROOT
BRANCH   1   2
ATOM      2  C   VAL A   6       0.154  73.036 -10.176  0.00  0.00    +0.241 C 
ATOM      3  O   VAL A   6      -0.240  71.936  -9.765  0.00  0.00    -0.273 OA
ATOM      4  N   GLY A   7      -0.099  73.472 -11.413  0.00  0.00    -0.295 N 
ATOM      5  H   GLY A   7       0.258  74.402 -11.710  0.00  0.00    +0.150 HD
BRANCH   4   6
ATOM      6  CA  GLY A   7      -0.868  72.664 -12.354  0.00  0.00    +0.176 C 
BRANCH   6   7
ATOM      7  C   GLY A   7      -0.209  71.309 -12.585  0.00  0.00    +0.243 C 
ATOM      8  O   GLY A   7      -0.860  70.259 -12.536  0.00  0.00    -0.273 OA
ATOM      9  N   TYR A   8       1.102  71.337 -12.792  0.00  0.00    -0.297 N 
ATOM     10  H   TYR A   8       1.589  72.256 -12.794  0.00  0.00    +0.150 HD
BRANCH   9  11
ATOM     11  CA  TYR A   8       1.884  70.127 -13.017  0.00  0.00    +0.153 C 
BRANCH  11  12
ATOM     12  C   TYR A   8       1.778  69.153 -11.840  0.00  0.00    +0.241 C 
ATOM     13  N   GLU A   9       1.981  69.669 -10.629  0.00  0.00    -0.297 N 
ATOM     14  H   GLU A   9       2.232  70.675 -10.545  0.00  0.00    +0.150 HD
ATOM     15  O   TYR A   8       1.517  67.961 -12.031  0.00  0.00    -0.273 OA
BRANCH  13  16
ATOM     16  CA  GLU A   9       1.861  68.861  -9.409  0.00  0.00    +0.149 C 
BRANCH  16  17
ATOM     17  C   GLU A   9       0.480  68.220  -9.308  0.00  0.00    +0.241 C 
ATOM     18  O   GLU A   9       0.365  67.032  -9.006  0.00  0.00    -0.273 OA
ATOM     19  N   LEU A  10      -0.569  68.989  -9.582  0.00  0.00    -0.298 N 
ATOM     20  H   LEU A  10      -0.429  69.995  -9.806  0.00  0.00    +0.150 HD
BRANCH  19  21
ATOM     21  CA  LEU A  10      -1.925  68.425  -9.570  0.00  0.00    +0.137 C 
BRANCH  21  22
ATOM     22  C   LEU A  10      -2.092  67.324 -10.643  0.00  0.00    +0.227 C 
ATOM     23  O   LEU A  10      -2.679  66.275 -10.381  0.00  0.00    -0.286 OA
ENDBRANCH  21  22
BRANCH  21  24
ATOM     24  CB  LEU A  10      -2.970  69.532  -9.760  0.00  0.00    +0.028 C 
BRANCH  24  25
ATOM     25  CG  LEU A  10      -3.086  70.431  -8.520  0.00  0.00    +0.002 C 
ATOM     26  CD2 LEU A  10      -3.709  69.649  -7.333  0.00  0.00    +0.000 C 
ATOM     27  CD1 LEU A  10      -3.881  71.693  -8.792  0.00  0.00    +0.000 C 
ENDBRANCH  24  25
ENDBRANCH  21  24
ENDBRANCH  19  21
ENDBRANCH  16  17
BRANCH  16  28
ATOM     28  CB  GLU A   9       2.154  69.710  -8.164  0.00  0.00    +0.041 C 
BRANCH  28  29
ATOM     29  CG  GLU A   9       3.634  70.105  -8.020  0.00  0.00    +0.116 C 
BRANCH  29  30
ATOM     30  CD  GLU A   9       3.899  71.193  -6.969  0.00  0.00    +0.365 C 
ATOM     31  OE2 GLU A   9       4.959  71.123  -6.317  0.00  0.00    -0.246 OA
ATOM     32  OE1 GLU A   9       3.068  72.118  -6.796  0.00  0.00    -0.246 OA
ENDBRANCH  29  30
ENDBRANCH  28  29
ENDBRANCH  16  28
ENDBRANCH  13  16
ENDBRANCH  11  12
BRANCH  11  33
ATOM     33  CB  TYR A   8       3.347  70.497 -13.275  0.00  0.00    +0.055 C 
BRANCH  33  34
ATOM     34  CG  TYR A   8       4.256  69.307 -13.499  0.00  0.00    -0.020 A 
ATOM     35  CD2 TYR A   8       5.019  68.807 -12.469  0.00  0.00    -0.001 A 
ATOM     36  CE2 TYR A   8       5.843  67.731 -12.644  0.00  0.00    +0.036 A 
ATOM     37  CZ  TYR A   8       5.946  67.134 -13.877  0.00  0.00    +0.134 A 
ATOM     38  CE1 TYR A   8       5.199  67.604 -14.948  0.00  0.00    +0.036 A 
ATOM     39  CD1 TYR A   8       4.361  68.694 -14.760  0.00  0.00    -0.001 A 
BRANCH  37  40
ATOM     40  OH  TYR A   8       6.795  66.059 -13.997  0.00  0.00    -0.506 OA
ATOM     41  HH  TYR A   8       7.716  66.340 -13.765  0.00  0.00    +0.292 HD
ENDBRANCH  37  40
ENDBRANCH  33  34
ENDBRANCH  11  33
ENDBRANCH   9  11
ENDBRANCH   6   7
ENDBRANCH   4   6
ENDBRANCH   1   2
BRANCH   1  43
ATOM     42  C   GLY A   5       3.064  73.584 -10.491  0.00  0.00    +0.243 C 
ATOM     43  N   VAL A   6       2.171  74.435 -10.008  0.00  0.00    -0.297 N 
ATOM     44  H   VAL A   6       2.302  75.457 -10.150  0.00  0.00    +0.150 HD
ATOM     45  O   GLY A   5       2.976  72.368 -10.321  0.00  0.00    -0.273 OA
BRANCH  42  46
ATOM     46  CA  GLY A   5       4.223  74.189 -11.264  0.00  0.00    +0.176 C 
BRANCH  46  48
ATOM     47  C   LEU A   4       2.963  74.832 -13.230  0.00  0.00    +0.241 C 
ATOM     48  N   GLY A   5       3.794  75.167 -12.247  0.00  0.00    -0.295 N 
ATOM     49  H   GLY A   5       4.142  76.145 -12.182  0.00  0.00    +0.150 HD
ATOM     50  O   LEU A   4       2.496  73.693 -13.359  0.00  0.00    -0.273 OA
BRANCH  47  51
ATOM     51  CA  LEU A   4       2.628  75.947 -14.220  0.00  0.00    +0.149 C 
BRANCH  51  54
ATOM     52  C   SER A   3       1.274  77.291 -12.716  0.00  0.00    +0.243 C 
ATOM     53  O   SER A   3       0.479  76.363 -12.556  0.00  0.00    -0.273 OA
ATOM     54  N   LEU A   4       2.326  77.195 -13.518  0.00  0.00    -0.297 N 
ATOM     55  H   LEU A   4       2.946  78.020 -13.650  0.00  0.00    +0.150 HD
BRANCH  52  56
ATOM     56  CA  SER A   3       1.117  78.578 -11.917  0.00  0.00    +0.178 C 
BRANCH  56  59
ATOM     57  C   PRO A   2      -0.526  80.387 -11.999  0.00  0.00    +0.241 C 
ATOM     58  O   PRO A   2       0.323  81.270 -11.909  0.00  0.00    -0.273 OA
ATOM     59  N   SER A   3      -0.243  79.086 -12.016  0.00  0.00    -0.295 N 
ATOM     60  H   SER A   3      -1.025  78.406 -12.104  0.00  0.00    +0.150 HD
BRANCH  57  67
ATOM     61  C   GLN A   1      -2.211  81.361  -9.691  0.00  0.00    +0.241 C 
ATOM     62  O   GLN A   1      -1.756  80.272  -9.372  0.00  0.00    -0.273 OA
ATOM     63  N   PRO A   2      -2.382  81.709 -10.981  0.00  0.00    -0.272 N 
ATOM     64  CD  PRO A   2      -3.053  82.901 -11.528  0.00  0.00    +0.094 C 
ATOM     65  CG  PRO A   2      -3.448  82.466 -12.937  0.00  0.00    +0.024 C 
ATOM     66  CB  PRO A   2      -2.372  81.484 -13.336  0.00  0.00    +0.031 C 
ATOM     67  CA  PRO A   2      -2.015  80.748 -12.033  0.00  0.00    +0.152 C 
BRANCH  61  68
ATOM     68  CA  GLN A   1      -2.641  82.361  -8.606  0.00  0.00    +0.145 C 
BRANCH  68  69
ATOM     69  N   GLN A   1      -3.674  81.780  -7.742  0.00  0.00    -0.238 NA
ATOM     70  H   GLN A   1      -3.393  81.316  -6.855  0.00  0.00    +0.142 HD
ENDBRANCH  68  69
BRANCH  68  71
ATOM     71  CB  GLN A   1      -1.425  82.793  -7.771  0.00  0.00    +0.036 C 
BRANCH  71  72
ATOM     72  CG  GLN A   1      -0.349  83.481  -8.620  0.00  0.00    +0.087 C 
BRANCH  72  73
ATOM     73  CD  GLN A   1      -0.830  84.838  -9.013  0.00  0.00    +0.219 C 
ATOM     74  OE1 GLN A   1      -1.511  85.491  -8.221  0.00  0.00    -0.275 OA
ATOM     75  NE2 GLN A   1      -0.550  85.258 -10.232  0.00  0.00    -0.329 N 
ATOM     76 HE21 GLN A   1      -0.909  86.177 -10.561  0.00  0.00    +0.145 HD
ATOM     77 HE22 GLN A   1       0.030  84.670 -10.864  0.00  0.00    +0.145 HD
ENDBRANCH  72  73
ENDBRANCH  71  72
ENDBRANCH  68  71
ENDBRANCH  61  68
ENDBRANCH  57  67
ENDBRANCH  56  59
BRANCH  56  78
ATOM     78  CB  SER A   3       1.473  78.339 -10.435  0.00  0.00    +0.166 C 
BRANCH  78  79
ATOM     79  OG  SER A   3       2.597  77.478 -10.294  0.00  0.00    -0.380 OA
ATOM     80  H   SER A   3       3.381  77.885 -10.741  0.00  0.00    +0.211 HD
ENDBRANCH  78  79
ENDBRANCH  56  78
ENDBRANCH  52  56
ENDBRANCH  51  54
BRANCH  51  81
ATOM     81  CB  LEU A   4       3.804  76.133 -15.181  0.00  0.00    +0.029 C 
BRANCH  81  82
ATOM     82  CG  LEU A   4       3.607  77.066 -16.365  0.00  0.00    +0.002 C 
ATOM     83  CD2 LEU A   4       4.955  77.311 -17.023  0.00  0.00    +0.000 C 
ATOM     84  CD1 LEU A   4       2.604  76.467 -17.361  0.00  0.00    +0.000 C 
ENDBRANCH  81  82
ENDBRANCH  51  81
ENDBRANCH  47  51
ENDBRANCH  46  48
ENDBRANCH  42  46
ENDBRANCH   1  43
BRANCH   1  85
ATOM     85  CB  VAL A   6       0.157  75.119  -8.744  0.00  0.00    +0.027 C 
ATOM     86  CG2 VAL A   6       0.935  75.885  -7.700  0.00  0.00    +0.002 C 
ATOM     87  CG1 VAL A   6      -1.142  74.611  -8.153  0.00  0.00    +0.002 C 
ENDBRANCH   1  85
TORSDOF 35
REMARK  Name = ../refined-set-2016/4p5d/4p5d_pocket.pdb
REMARK  204 active torsions:
REMARK  status: ('A' for Active; 'I' for Inactive)
REMARK    1  A    between atoms: _1  and  _3
REMARK    2  A    between atoms: _3  and  _4
REMARK    3  A    between atoms: _3  and  _6
REMARK    4  A    between atoms: _6  and  _7
REMARK    5  A    between atoms: _12  and  _13
REMARK    6  A    between atoms: _15  and  _17
REMARK    7  A    between atoms: _17  and  _18
REMARK    8  A    between atoms: _17  and  _20
REMARK    9  A    between atoms: _20  and  _21
REMARK   10  A    between atoms: _27  and  _29
REMARK   11  A    between atoms: _29  and  _30
REMARK   12  A    between atoms: _29  and  _32
REMARK   13  A    between atoms: _34  and  _36
REMARK   14  A    between atoms: _36  and  _37
REMARK   15  A    between atoms: _39  and  _41
REMARK   16  A    between atoms: _41  and  _42
REMARK   17  A    between atoms: _41  and  _44
REMARK   18  A    between atoms: _44  and  _45
REMARK   19  A    between atoms: _47  and  _49
REMARK   20  A    between atoms: _49  and  _50
REMARK   21  A    between atoms: _49  and  _52
REMARK   22  A    between atoms: _52  and  _53
REMARK   23  A    between atoms: _56  and  _58
REMARK   24  A    between atoms: _58  and  _59
REMARK   25  A    between atoms: _58  and  _61
REMARK   26  A    between atoms: _61  and  _62
REMARK   27  A    between atoms: _62  and  _63
REMARK   28  A    between atoms: _63  and  _64
REMARK   29  A    between atoms: _73  and  _75
REMARK   30  A    between atoms: _75  and  _76
REMARK   31  A    between atoms: _78  and  _80
REMARK   32  A    between atoms: _80  and  _81
REMARK   33  A    between atoms: _83  and  _85
REMARK   34  A    between atoms: _85  and  _86
REMARK   35  A    between atoms: _85  and  _88
REMARK   36  A    between atoms: _88  and  _89
REMARK   37  A    between atoms: _89  and  _90
REMARK   38  A    between atoms: _90  and  _91
REMARK   39  A    between atoms: _100  and  _102
REMARK   40  A    between atoms: _102  and  _103
REMARK   41  A    between atoms: _102  and  _105
REMARK   42  A    between atoms: _105  and  _106
REMARK   43  A    between atoms: _111  and  _112
REMARK   44  A    between atoms: _114  and  _116
REMARK   45  A    between atoms: _116  and  _117
REMARK   46  A    between atoms: _116  and  _119
REMARK   47  A    between atoms: _119  and  _120
REMARK   48  A    between atoms: _123  and  _125
REMARK   49  A    between atoms: _125  and  _126
REMARK   50  A    between atoms: _125  and  _128
REMARK   51  A    between atoms: _128  and  _129
REMARK   52  A    between atoms: _129  and  _130
REMARK   53  A    between atoms: _133  and  _135
REMARK   54  A    between atoms: _135  and  _136
REMARK   55  A    between atoms: _135  and  _138
REMARK   56  A    between atoms: _138  and  _139
REMARK   57  A    between atoms: _144  and  _146
REMARK   58  A    between atoms: _146  and  _147
REMARK   59  A    between atoms: _146  and  _149
REMARK   60  A    between atoms: _152  and  _154
REMARK   61  A    between atoms: _154  and  _155
REMARK   62  A    between atoms: _154  and  _157
REMARK   63  A    between atoms: _157  and  _158
REMARK   64  A    between atoms: _161  and  _163
REMARK   65  A    between atoms: _163  and  _164
REMARK   66  A    between atoms: _163  and  _166
REMARK   67  A    between atoms: _166  and  _167
REMARK   68  A    between atoms: _167  and  _168
REMARK   69  A    between atoms: _172  and  _173
REMARK   70  A    between atoms: _178  and  _180
REMARK   71  A    between atoms: _180  and  _181
REMARK   72  A    between atoms: _180  and  _183
REMARK   73  A    between atoms: _183  and  _184
REMARK   74  A    between atoms: _187  and  _189
REMARK   75  A    between atoms: _189  and  _190
REMARK   76  A    between atoms: _192  and  _194
REMARK   77  A    between atoms: _194  and  _195
REMARK   78  A    between atoms: _194  and  _197
REMARK   79  A    between atoms: _197  and  _198
REMARK   80  A    between atoms: _198  and  _199
REMARK   81  A    between atoms: _202  and  _204
REMARK   82  A    between atoms: _204  and  _205
REMARK   83  A    between atoms: _204  and  _207
REMARK   84  A    between atoms: _207  and  _208
REMARK   85  A    between atoms: _208  and  _209
REMARK   86  A    between atoms: _212  and  _214
REMARK   87  A    between atoms: _214  and  _215
REMARK   88  A    between atoms: _218  and  _220
REMARK   89  A    between atoms: _220  and  _221
REMARK   90  A    between atoms: _224  and  _226
REMARK   91  A    between atoms: _226  and  _227
REMARK   92  A    between atoms: _229  and  _231
REMARK   93  A    between atoms: _231  and  _232
REMARK   94  A    between atoms: _234  and  _236
REMARK   95  A    between atoms: _236  and  _237
REMARK   96  A    between atoms: _236  and  _239
REMARK   97  A    between atoms: _239  and  _240
REMARK   98  A    between atoms: _243  and  _245
REMARK   99  A    between atoms: _245  and  _246
REMARK  100  A    between atoms: _245  and  _248
REMARK  101  A    between atoms: _248  and  _249
REMARK  102  A    between atoms: _255  and  _257
REMARK  103  A    between atoms: _257  and  _258
REMARK  104  A    between atoms: _257  and  _260
REMARK  105  A    between atoms: _260  and  _261
REMARK  106  A    between atoms: _264  and  _266
REMARK  107  A    between atoms: _266  and  _267
REMARK  108  A    between atoms: _266  and  _269
REMARK  109  A    between atoms: _269  and  _270
REMARK  110  A    between atoms: _275  and  _277
REMARK  111  A    between atoms: _277  and  _278
REMARK  112  A    between atoms: _277  and  _280
REMARK  113  A    between atoms: _280  and  _281
REMARK  114  A    between atoms: _281  and  _282
REMARK  115  A    between atoms: _287  and  _289
REMARK  116  A    between atoms: _289  and  _290
REMARK  117  A    between atoms: _289  and  _292
REMARK  118  A    between atoms: _292  and  _293
REMARK  119  A    between atoms: _298  and  _300
REMARK  120  A    between atoms: _300  and  _301
REMARK  121  A    between atoms: _300  and  _303
REMARK  122  A    between atoms: _303  and  _304
REMARK  123  A    between atoms: _314  and  _316
REMARK  124  A    between atoms: _316  and  _317
REMARK  125  A    between atoms: _316  and  _319
REMARK  126  A    between atoms: _322  and  _324
REMARK  127  A    between atoms: _324  and  _325
REMARK  128  A    between atoms: _328  and  _330
REMARK  129  A    between atoms: _330  and  _331
REMARK  130  A    between atoms: _330  and  _333
REMARK  131  A    between atoms: _333  and  _334
REMARK  132  A    between atoms: _334  and  _335
REMARK  133  A    between atoms: _338  and  _340
REMARK  134  A    between atoms: _340  and  _341
REMARK  135  A    between atoms: _340  and  _343
REMARK  136  A    between atoms: _343  and  _344
REMARK  137  A    between atoms: _344  and  _345
REMARK  138  A    between atoms: _351  and  _352
REMARK  139  A    between atoms: _357  and  _359
REMARK  140  A    between atoms: _359  and  _360
REMARK  141  A    between atoms: _359  and  _362
REMARK  142  A    between atoms: _362  and  _363
REMARK  143  A    between atoms: _365  and  _367
REMARK  144  A    between atoms: _367  and  _368
REMARK  145  A    between atoms: _367  and  _370
REMARK  146  A    between atoms: _370  and  _371
REMARK  147  A    between atoms: _374  and  _376
REMARK  148  A    between atoms: _376  and  _377
REMARK  149  A    between atoms: _379  and  _381
REMARK  150  A    between atoms: _381  and  _382
REMARK  151  A    between atoms: _381  and  _384
REMARK  152  A    between atoms: _387  and  _389
REMARK  153  A    between atoms: _389  and  _390
REMARK  154  A    between atoms: _392  and  _394
REMARK  155  A    between atoms: _394  and  _395
REMARK  156  A    between atoms: _394  and  _397
REMARK  157  A    between atoms: _397  and  _398
REMARK  158  A    between atoms: _403  and  _404
REMARK  159  A    between atoms: _406  and  _408
REMARK  160  A    between atoms: _408  and  _409
REMARK  161  A    between atoms: _408  and  _411
REMARK  162  A    between atoms: _411  and  _412
REMARK  163  A    between atoms: _412  and  _413
REMARK  164  A    between atoms: _416  and  _418
REMARK  165  A    between atoms: _418  and  _419
REMARK  166  A    between atoms: _418  and  _421
REMARK  167  A    between atoms: _421  and  _422
REMARK  168  A    between atoms: _426  and  _427
REMARK  169  A    between atoms: _432  and  _434
REMARK  170  A    between atoms: _434  and  _435
REMARK  171  A    between atoms: _434  and  _437
REMARK  172  A    between atoms: _437  and  _438
REMARK  173  A    between atoms: _440  and  _442
REMARK  174  A    between atoms: _442  and  _443
REMARK  175  A    between atoms: _442  and  _445
REMARK  176  A    between atoms: _445  and  _446
REMARK  177  A    between atoms: _449  and  _451
REMARK  178  A    between atoms: _451  and  _452
REMARK  179  A    between atoms: _451  and  _454
REMARK  180  A    between atoms: _457  and  _459
REMARK  181  A    between atoms: _459  and  _460
REMARK  182  A    between atoms: _459  and  _462
REMARK  183  A    between atoms: _462  and  _463
REMARK  184  A    between atoms: _466  and  _468
REMARK  185  A    between atoms: _468  and  _469
REMARK  186  A    between atoms: _468  and  _471
REMARK  187  A    between atoms: _471  and  _472
REMARK  188  A    between atoms: _474  and  _476
REMARK  189  A    between atoms: _476  and  _477
REMARK  190  A    between atoms: _480  and  _482
REMARK  191  A    between atoms: _482  and  _483
REMARK  192  A    between atoms: _482  and  _485
REMARK  193  A    between atoms: _485  and  _486
REMARK  194  A    between atoms: _486  and  _487
REMARK  195  A    between atoms: _489  and  _491
REMARK  196  A    between atoms: _491  and  _492
REMARK  197  A    between atoms: _491  and  _494
REMARK  198  A    between atoms: _494  and  _495
REMARK  199  A    between atoms: _498  and  _500
REMARK  200  A    between atoms: _500  and  _501
REMARK  201  A    between atoms: _500  and  _503
REMARK  202  A    between atoms: _503  and  _504
REMARK  203  A    between atoms: _504  and  _505
REMARK  204  A    between atoms: _505  and  _506
REMARK                            x       y       z     vdW  Elec       q    Type
REMARK                         _______ _______ _______ _____ _____    ______ ____
ROOT
ATOM      1  CA  SER A   2      -1.117  78.578 -16.544  0.00  0.00    +0.178 C 
ENDROOT
BRANCH   1   3
ATOM      2  C   PRO A   1       0.526  80.387 -16.462  0.00  0.00    +0.239 C 
ATOM      3  N   SER A   2       0.243  79.086 -16.445  0.00  0.00    -0.295 N 
ATOM      4  H   SER A   2       1.025  78.406 -16.357  0.00  0.00    +0.150 HD
ATOM      5  O   PRO A   1      -0.323  81.270 -16.552  0.00  0.00    -0.274 OA
BRANCH   2   7
ATOM      6  N   PRO A   1       2.382  81.709 -17.480  0.00  0.00    -0.210 NA
ATOM      7  CA  PRO A   1       2.015  80.748 -16.428  0.00  0.00    +0.149 C 
ATOM      8  CB  PRO A   1       2.372  81.484 -15.125  0.00  0.00    +0.028 C 
ATOM      9  CG  PRO A   1       3.448  82.466 -15.524  0.00  0.00    +0.021 C 
ATOM     10  CD  PRO A   1       3.053  82.901 -16.933  0.00  0.00    +0.089 C 
ENDBRANCH   2   7
ENDBRANCH   1   3
BRANCH   1  11
ATOM     11  C   SER A   2      -1.274  77.291 -15.745  0.00  0.00    +0.243 C 
ATOM     12  N   LEU A   3      -2.326  77.195 -14.943  0.00  0.00    -0.298 N 
ATOM     13  H   LEU A   3      -2.946  78.020 -14.811  0.00  0.00    +0.150 HD
ATOM     14  O   SER A   2      -0.479  76.363 -15.905  0.00  0.00    -0.273 OA
BRANCH  12  15
ATOM     15  CA  LEU A   3      -2.628  75.947 -14.241  0.00  0.00    +0.137 C 
BRANCH  15  16
ATOM     16  C   LEU A   3      -2.963  74.832 -15.231  0.00  0.00    +0.227 C 
ATOM     17  O   LEU A   3      -2.496  73.693 -15.102  0.00  0.00    -0.286 OA
ENDBRANCH  15  16
BRANCH  15  18
ATOM     18  CB  LEU A   3      -3.804  76.133 -13.280  0.00  0.00    +0.028 C 
BRANCH  18  19
ATOM     19  CG  LEU A   3      -3.607  77.066 -12.096  0.00  0.00    +0.002 C 
ATOM     20  CD2 LEU A   3      -2.604  76.467 -11.100  0.00  0.00    +0.000 C 
ATOM     21  CD1 LEU A   3      -4.955  77.311 -11.438  0.00  0.00    +0.000 C 
ENDBRANCH  18  19
ENDBRANCH  15  18
ENDBRANCH  12  15
ENDBRANCH   1  11
BRANCH   1  22
ATOM     22  CB  SER A   2      -1.473  78.339 -18.026  0.00  0.00    +0.166 C 
BRANCH  22  23
ATOM     23  OG  SER A   2      -2.597  77.478 -18.167  0.00  0.00    -0.380 OA
ATOM     24  H   SER A   2      -2.794  77.349 -19.129  0.00  0.00    +0.211 HD
ENDBRANCH  22  23
ENDBRANCH   1  22
TORSDOF 9
REMARK  Name = ../refined-set-2016/4p5d/4p5d_pocket.pdb
REMARK  204 active torsions:
REMARK  status: ('A' for Active; 'I' for Inactive)
REMARK    1  A    between atoms: _1  and  _3
REMARK    2  A    between atoms: _3  and  _4
REMARK    3  A    between atoms: _3  and  _6
REMARK    4  A    between atoms: _6  and  _7
REMARK    5  A    between atoms: _12  and  _13
REMARK    6  A    between atoms: _15  and  _17
REMARK    7  A    between atoms: _17  and  _18
REMARK    8  A    between atoms: _17  and  _20
REMARK    9  A    between atoms: _20  and  _21
REMARK   10  A    between atoms: _27  and  _29
REMARK   11  A    between atoms: _29  and  _30
REMARK   12  A    between atoms: _29  and  _32
REMARK   13  A    between atoms: _34  and  _36
REMARK   14  A    between atoms: _36  and  _37
REMARK   15  A    between atoms: _39  and  _41
REMARK   16  A    between atoms: _41  and  _42
REMARK   17  A    between atoms: _41  and  _44
REMARK   18  A    between atoms: _44  and  _45
REMARK   19  A    between atoms: _47  and  _49
REMARK   20  A    between atoms: _49  and  _50
REMARK   21  A    between atoms: _49  and  _52
REMARK   22  A    between atoms: _52  and  _53
REMARK   23  A    between atoms: _56  and  _58
REMARK   24  A    between atoms: _58  and  _59
REMARK   25  A    between atoms: _58  and  _61
REMARK   26  A    between atoms: _61  and  _62
REMARK   27  A    between atoms: _62  and  _63
REMARK   28  A    between atoms: _63  and  _64
REMARK   29  A    between atoms: _73  and  _75
REMARK   30  A    between atoms: _75  and  _76
REMARK   31  A    between atoms: _78  and  _80
REMARK   32  A    between atoms: _80  and  _81
REMARK   33  A    between atoms: _83  and  _85
REMARK   34  A    between atoms: _85  and  _86
REMARK   35  A    between atoms: _85  and  _88
REMARK   36  A    between atoms: _88  and  _89
REMARK   37  A    between atoms: _89  and  _90
REMARK   38  A    between atoms: _90  and  _91
REMARK   39  A    between atoms: _100  and  _102
REMARK   40  A    between atoms: _102  and  _103
REMARK   41  A    between atoms: _102  and  _105
REMARK   42  A    between atoms: _105  and  _106
REMARK   43  A    between atoms: _111  and  _112
REMARK   44  A    between atoms: _114  and  _116
REMARK   45  A    between atoms: _116  and  _117
REMARK   46  A    between atoms: _116  and  _119
REMARK   47  A    between atoms: _119  and  _120
REMARK   48  A    between atoms: _123  and  _125
REMARK   49  A    between atoms: _125  and  _126
REMARK   50  A    between atoms: _125  and  _128
REMARK   51  A    between atoms: _128  and  _129
REMARK   52  A    between atoms: _129  and  _130
REMARK   53  A    between atoms: _133  and  _135
REMARK   54  A    between atoms: _135  and  _136
REMARK   55  A    between atoms: _135  and  _138
REMARK   56  A    between atoms: _138  and  _139
REMARK   57  A    between atoms: _144  and  _146
REMARK   58  A    between atoms: _146  and  _147
REMARK   59  A    between atoms: _146  and  _149
REMARK   60  A    between atoms: _152  and  _154
REMARK   61  A    between atoms: _154  and  _155
REMARK   62  A    between atoms: _154  and  _157
REMARK   63  A    between atoms: _157  and  _158
REMARK   64  A    between atoms: _161  and  _163
REMARK   65  A    between atoms: _163  and  _164
REMARK   66  A    between atoms: _163  and  _166
REMARK   67  A    between atoms: _166  and  _167
REMARK   68  A    between atoms: _167  and  _168
REMARK   69  A    between atoms: _172  and  _173
REMARK   70  A    between atoms: _178  and  _180
REMARK   71  A    between atoms: _180  and  _181
REMARK   72  A    between atoms: _180  and  _183
REMARK   73  A    between atoms: _183  and  _184
REMARK   74  A    between atoms: _187  and  _189
REMARK   75  A    between atoms: _189  and  _190
REMARK   76  A    between atoms: _192  and  _194
REMARK   77  A    between atoms: _194  and  _195
REMARK   78  A    between atoms: _194  and  _197
REMARK   79  A    between atoms: _197  and  _198
REMARK   80  A    between atoms: _198  and  _199
REMARK   81  A    between atoms: _202  and  _204
REMARK   82  A    between atoms: _204  and  _205
REMARK   83  A    between atoms: _204  and  _207
REMARK   84  A    between atoms: _207  and  _208
REMARK   85  A    between atoms: _208  and  _209
REMARK   86  A    between atoms: _212  and  _214
REMARK   87  A    between atoms: _214  and  _215
REMARK   88  A    between atoms: _218  and  _220
REMARK   89  A    between atoms: _220  and  _221
REMARK   90  A    between atoms: _224  and  _226
REMARK   91  A    between atoms: _226  and  _227
REMARK   92  A    between atoms: _229  and  _231
REMARK   93  A    between atoms: _231  and  _232
REMARK   94  A    between atoms: _234  and  _236
REMARK   95  A    between atoms: _236  and  _237
REMARK   96  A    between atoms: _236  and  _239
REMARK   97  A    between atoms: _239  and  _240
REMARK   98  A    between atoms: _243  and  _245
REMARK   99  A    between atoms: _245  and  _246
REMARK  100  A    between atoms: _245  and  _248
REMARK  101  A    between atoms: _248  and  _249
REMARK  102  A    between atoms: _255  and  _257
REMARK  103  A    between atoms: _257  and  _258
REMARK  104  A    between atoms: _257  and  _260
REMARK  105  A    between atoms: _260  and  _261
REMARK  106  A    between atoms: _264  and  _266
REMARK  107  A    between atoms: _266  and  _267
REMARK  108  A    between atoms: _266  and  _269
REMARK  109  A    between atoms: _269  and  _270
REMARK  110  A    between atoms: _275  and  _277
REMARK  111  A    between atoms: _277  and  _278
REMARK  112  A    between atoms: _277  and  _280
REMARK  113  A    between atoms: _280  and  _281
REMARK  114  A    between atoms: _281  and  _282
REMARK  115  A    between atoms: _287  and  _289
REMARK  116  A    between atoms: _289  and  _290
REMARK  117  A    between atoms: _289  and  _292
REMARK  118  A    between atoms: _292  and  _293
REMARK  119  A    between atoms: _298  and  _300
REMARK  120  A    between atoms: _300  and  _301
REMARK  121  A    between atoms: _300  and  _303
REMARK  122  A    between atoms: _303  and  _304
REMARK  123  A    between atoms: _314  and  _316
REMARK  124  A    between atoms: _316  and  _317
REMARK  125  A    between atoms: _316  and  _319
REMARK  126  A    between atoms: _322  and  _324
REMARK  127  A    between atoms: _324  and  _325
REMARK  128  A    between atoms: _328  and  _330
REMARK  129  A    between atoms: _330  and  _331
REMARK  130  A    between atoms: _330  and  _333
REMARK  131  A    between atoms: _333  and  _334
REMARK  132  A    between atoms: _334  and  _335
REMARK  133  A    between atoms: _338  and  _340
REMARK  134  A    between atoms: _340  and  _341
REMARK  135  A    between atoms: _340  and  _343
REMARK  136  A    between atoms: _343  and  _344
REMARK  137  A    between atoms: _344  and  _345
REMARK  138  A    between atoms: _351  and  _352
REMARK  139  A    between atoms: _357  and  _359
REMARK  140  A    between atoms: _359  and  _360
REMARK  141  A    between atoms: _359  and  _362
REMARK  142  A    between atoms: _362  and  _363
REMARK  143  A    between atoms: _365  and  _367
REMARK  144  A    between atoms: _367  and  _368
REMARK  145  A    between atoms: _367  and  _370
REMARK  146  A    between atoms: _370  and  _371
REMARK  147  A    between atoms: _374  and  _376
REMARK  148  A    between atoms: _376  and  _377
REMARK  149  A    between atoms: _379  and  _381
REMARK  150  A    between atoms: _381  and  _382
REMARK  151  A    between atoms: _381  and  _384
REMARK  152  A    between atoms: _387  and  _389
REMARK  153  A    between atoms: _389  and  _390
REMARK  154  A    between atoms: _392  and  _394
REMARK  155  A    between atoms: _394  and  _395
REMARK  156  A    between atoms: _394  and  _397
REMARK  157  A    between atoms: _397  and  _398
REMARK  158  A    between atoms: _403  and  _404
REMARK  159  A    between atoms: _406  and  _408
REMARK  160  A    between atoms: _408  and  _409
REMARK  161  A    between atoms: _408  and  _411
REMARK  162  A    between atoms: _411  and  _412
REMARK  163  A    between atoms: _412  and  _413
REMARK  164  A    between atoms: _416  and  _418
REMARK  165  A    between atoms: _418  and  _419
REMARK  166  A    between atoms: _418  and  _421
REMARK  167  A    between atoms: _421  and  _422
REMARK  168  A    between atoms: _426  and  _427
REMARK  169  A    between atoms: _432  and  _434
REMARK  170  A    between atoms: _434  and  _435
REMARK  171  A    between atoms: _434  and  _437
REMARK  172  A    between atoms: _437  and  _438
REMARK  173  A    between atoms: _440  and  _442
REMARK  174  A    between atoms: _442  and  _443
REMARK  175  A    between atoms: _442  and  _445
REMARK  176  A    between atoms: _445  and  _446
REMARK  177  A    between atoms: _449  and  _451
REMARK  178  A    between atoms: _451  and  _452
REMARK  179  A    between atoms: _451  and  _454
REMARK  180  A    between atoms: _457  and  _459
REMARK  181  A    between atoms: _459  and  _460
REMARK  182  A    between atoms: _459  and  _462
REMARK  183  A    between atoms: _462  and  _463
REMARK  184  A    between atoms: _466  and  _468
REMARK  185  A    between atoms: _468  and  _469
REMARK  186  A    between atoms: _468  and  _471
REMARK  187  A    between atoms: _471  and  _472
REMARK  188  A    between atoms: _474  and  _476
REMARK  189  A    between atoms: _476  and  _477
REMARK  190  A    between atoms: _480  and  _482
REMARK  191  A    between atoms: _482  and  _483
REMARK  192  A    between atoms: _482  and  _485
REMARK  193  A    between atoms: _485  and  _486
REMARK  194  A    between atoms: _486  and  _487
REMARK  195  A    between atoms: _489  and  _491
REMARK  196  A    between atoms: _491  and  _492
REMARK  197  A    between atoms: _491  and  _494
REMARK  198  A    between atoms: _494  and  _495
REMARK  199  A    between atoms: _498  and  _500
REMARK  200  A    between atoms: _500  and  _501
REMARK  201  A    between atoms: _500  and  _503
REMARK  202  A    between atoms: _503  and  _504
REMARK  203  A    between atoms: _504  and  _505
REMARK  204  A    between atoms: _505  and  _506
REMARK                            x       y       z     vdW  Elec       q    Type
REMARK                         _______ _______ _______ _____ _____    ______ ____
ROOT
ATOM      1  C   ALA A   4      10.807  73.431 -12.095  0.00  0.00    +0.241 C 
ATOM      2  N   MET A   5       9.497  73.289 -11.935  0.00  0.00    -0.297 N 
ATOM      3  H   MET A   5       8.909  74.111 -11.688  0.00  0.00    +0.150 HD
ATOM      4  O   ALA A   4      11.530  72.498 -12.415  0.00  0.00    -0.273 OA
ENDROOT
BRANCH   1   5
ATOM      5  CA  ALA A   4      11.400  74.806 -11.845  0.00  0.00    +0.149 C 
ATOM      6  CB  ALA A   4      11.899  74.903 -10.389  0.00  0.00    +0.031 C 
BRANCH   5   8
ATOM      7  C   SER A   3       9.938  76.019 -13.359  0.00  0.00    +0.243 C 
ATOM      8  N   ALA A   4      10.440  75.863 -12.137  0.00  0.00    -0.297 N 
ATOM      9  H   ALA A   4      10.142  76.507 -11.376  0.00  0.00    +0.150 HD
ATOM     10  O   SER A   3      10.257  75.309 -14.317  0.00  0.00    -0.273 OA
BRANCH   7  11
ATOM     11  CA  SER A   3       8.903  77.124 -13.528  0.00  0.00    +0.178 C 
BRANCH  11  14
ATOM     12  C   LEU A   2      10.329  78.516 -14.968  0.00  0.00    +0.241 C 
ATOM     13  O   LEU A   2      11.327  78.354 -14.272  0.00  0.00    -0.273 OA
ATOM     14  N   SER A   3       9.148  77.969 -14.694  0.00  0.00    -0.295 N 
ATOM     15  H   SER A   3       8.357  78.153 -15.344  0.00  0.00    +0.150 HD
BRANCH  12  16
ATOM     16  CA  LEU A   2      10.405  79.330 -16.258  0.00  0.00    +0.149 C 
BRANCH  16  19
ATOM     17  C   VAL A   1      10.991  81.491 -15.319  0.00  0.00    +0.238 C 
ATOM     18  O   VAL A   1       9.942  81.533 -14.678  0.00  0.00    -0.274 OA
ATOM     19  N   LEU A   2      11.311  80.460 -16.098  0.00  0.00    -0.297 N 
ATOM     20  H   LEU A   2      12.222  80.461 -16.600  0.00  0.00    +0.150 HD
BRANCH  17  21
ATOM     21  CA  VAL A   1      11.974  82.665 -15.276  0.00  0.00    +0.145 C 
BRANCH  21  22
ATOM     22  CB  VAL A   1      12.727  82.700 -13.938  0.00  0.00    +0.025 C 
ATOM     23  CG2 VAL A   1      13.536  81.428 -13.747  0.00  0.00    +0.002 C 
ATOM     24  CG1 VAL A   1      13.633  83.930 -13.871  0.00  0.00    +0.002 C 
ENDBRANCH  21  22
BRANCH  21  25
ATOM     25  N   VAL A   1      11.210  83.878 -15.493  0.00  0.00    -0.238 NA
ATOM     26  H   VAL A   1      10.664  84.281 -14.705  0.00  0.00    +0.142 HD
ENDBRANCH  21  25
ENDBRANCH  17  21
ENDBRANCH  16  19
BRANCH  16  27
ATOM     27  CB  LEU A   2      10.851  78.433 -17.421  0.00  0.00    +0.029 C 
BRANCH  27  28
ATOM     28  CG  LEU A   2      10.063  77.132 -17.593  0.00  0.00    +0.002 C 
ATOM     29  CD2 LEU A   2       8.578  77.438 -17.857  0.00  0.00    +0.000 C 
ATOM     30  CD1 LEU A   2      10.654  76.253 -18.706  0.00  0.00    +0.000 C 
ENDBRANCH  27  28
ENDBRANCH  16  27
ENDBRANCH  12  16
ENDBRANCH  11  14
BRANCH  11  31
ATOM     31  CB  SER A   3       7.526  76.465 -13.653  0.00  0.00    +0.166 C 
BRANCH  31  32
ATOM     32  OG  SER A   3       7.328  75.542 -12.598  0.00  0.00    -0.380 OA
ATOM     33  H   SER A   3       7.383  76.017 -11.731  0.00  0.00    +0.211 HD
ENDBRANCH  31  32
ENDBRANCH  11  31
ENDBRANCH   7  11
ENDBRANCH   5   8
ENDBRANCH   1   5
BRANCH   2  34
ATOM     34  CA  MET A   5       8.887  71.980 -12.106  0.00  0.00    +0.149 C 
BRANCH  34  35
ATOM     35  C   MET A   5       8.775  71.614 -13.584  0.00  0.00    +0.241 C 
ATOM     36  O   MET A   5       8.659  70.445 -13.926  0.00  0.00    -0.273 OA
ATOM     37  N   ILE A   6       8.782  72.616 -14.449  0.00  0.00    -0.297 N 
ATOM     38  H   ILE A   6       8.830  73.594 -14.098  0.00  0.00    +0.150 HD
BRANCH  37  39
ATOM     39  CA  ILE A   6       8.724  72.373 -15.889  0.00  0.00    +0.149 C 
BRANCH  39  40
ATOM     40  C   ILE A   6      10.145  72.165 -16.399  0.00  0.00    +0.241 C 
ATOM     41  N   ARG A   7      10.979  73.183 -16.204  0.00  0.00    -0.298 N 
ATOM     42  H   ARG A   7      10.607  74.070 -15.808  0.00  0.00    +0.150 HD
ATOM     43  O   ILE A   6      10.455  71.134 -17.006  0.00  0.00    -0.273 OA
BRANCH  41  44
ATOM     44  CA  ARG A   7      12.400  73.094 -16.528  0.00  0.00    +0.137 C 
BRANCH  44  45
ATOM     45  C   ARG A   7      13.011  71.826 -15.913  0.00  0.00    +0.227 C 
ATOM     46  O   ARG A   7      13.704  71.078 -16.582  0.00  0.00    -0.286 OA
ENDBRANCH  44  45
BRANCH  44  47
ATOM     47  CB  ARG A   7      13.123  74.352 -16.036  0.00  0.00    +0.031 C 
BRANCH  47  48
ATOM     48  CG  ARG A   7      14.609  74.414 -16.331  0.00  0.00    +0.045 C 
BRANCH  48  49
ATOM     49  CD  ARG A   7      14.910  74.931 -17.725  0.00  0.00    +0.174 C 
BRANCH  49  50
ATOM     50  NE  ARG A   7      14.516  76.327 -17.944  0.00  0.00    -0.265 N 
ATOM     51  HE  ARG A   7      14.188  76.885 -17.130  0.00  0.00    +0.259 HD
ATOM     52  CZ  ARG A   7      14.560  76.910 -19.141  0.00  0.00    +0.342 C 
ATOM     53  NH2 ARG A   7      14.199  78.178 -19.310  0.00  0.00    -0.292 N 
ATOM     54 HH21 ARG A   7      13.873  78.739 -18.497  0.00  0.00    +0.255 HD
ATOM     55 HH22 ARG A   7      14.243  78.610 -20.255  0.00  0.00    +0.255 HD
ATOM     56  NH1 ARG A   7      14.967  76.204 -20.183  0.00  0.00    -0.292 N 
ATOM     57 HH11 ARG A   7      15.246  75.210 -20.060  0.00  0.00    +0.255 HD
ATOM     58 HH12 ARG A   7      15.008  76.643 -21.125  0.00  0.00    +0.255 HD
ENDBRANCH  49  50
ENDBRANCH  48  49
ENDBRANCH  47  48
ENDBRANCH  44  47
ENDBRANCH  41  44
ENDBRANCH  39  40
BRANCH  39  59
ATOM     59  CB  ILE A   6       8.028  73.502 -16.641  0.00  0.00    +0.027 C 
ATOM     60  CG2 ILE A   6       7.986  73.196 -18.150  0.00  0.00    +0.002 C 
BRANCH  59  61
ATOM     61  CG1 ILE A   6       6.607  73.676 -16.094  0.00  0.00    +0.002 C 
ATOM     62  CD1 ILE A   6       5.794  72.400 -16.068  0.00  0.00    +0.000 C 
ENDBRANCH  59  61
ENDBRANCH  39  59
ENDBRANCH  37  39
ENDBRANCH  34  35
BRANCH  34  63
ATOM     63  CB  MET A   5       7.506  71.924 -11.445  0.00  0.00    +0.041 C 
BRANCH  63  64
ATOM     64  CG  MET A   5       7.558  72.047  -9.933  0.00  0.00    +0.060 C 
BRANCH  64  65
ATOM     65  SD  MET A   5       8.479  70.697  -9.175  0.00  0.00    -0.139 S 
ATOM     66  CE  MET A   5       7.422  69.277  -9.435  0.00  0.00    +0.069 C 
ENDBRANCH  64  65
ENDBRANCH  63  64
ENDBRANCH  34  63
ENDBRANCH   2  34
TORSDOF 28
REMARK  Name = ../refined-set-2016/4p5d/4p5d_pocket.pdb
REMARK  204 active torsions:
REMARK  status: ('A' for Active; 'I' for Inactive)
REMARK    1  A    between atoms: _1  and  _3
REMARK    2  A    between atoms: _3  and  _4
REMARK    3  A    between atoms: _3  and  _6
REMARK    4  A    between atoms: _6  and  _7
REMARK    5  A    between atoms: _12  and  _13
REMARK    6  A    between atoms: _15  and  _17
REMARK    7  A    between atoms: _17  and  _18
REMARK    8  A    between atoms: _17  and  _20
REMARK    9  A    between atoms: _20  and  _21
REMARK   10  A    between atoms: _27  and  _29
REMARK   11  A    between atoms: _29  and  _30
REMARK   12  A    between atoms: _29  and  _32
REMARK   13  A    between atoms: _34  and  _36
REMARK   14  A    between atoms: _36  and  _37
REMARK   15  A    between atoms: _39  and  _41
REMARK   16  A    between atoms: _41  and  _42
REMARK   17  A    between atoms: _41  and  _44
REMARK   18  A    between atoms: _44  and  _45
REMARK   19  A    between atoms: _47  and  _49
REMARK   20  A    between atoms: _49  and  _50
REMARK   21  A    between atoms: _49  and  _52
REMARK   22  A    between atoms: _52  and  _53
REMARK   23  A    between atoms: _56  and  _58
REMARK   24  A    between atoms: _58  and  _59
REMARK   25  A    between atoms: _58  and  _61
REMARK   26  A    between atoms: _61  and  _62
REMARK   27  A    between atoms: _62  and  _63
REMARK   28  A    between atoms: _63  and  _64
REMARK   29  A    between atoms: _73  and  _75
REMARK   30  A    between atoms: _75  and  _76
REMARK   31  A    between atoms: _78  and  _80
REMARK   32  A    between atoms: _80  and  _81
REMARK   33  A    between atoms: _83  and  _85
REMARK   34  A    between atoms: _85  and  _86
REMARK   35  A    between atoms: _85  and  _88
REMARK   36  A    between atoms: _88  and  _89
REMARK   37  A    between atoms: _89  and  _90
REMARK   38  A    between atoms: _90  and  _91
REMARK   39  A    between atoms: _100  and  _102
REMARK   40  A    between atoms: _102  and  _103
REMARK   41  A    between atoms: _102  and  _105
REMARK   42  A    between atoms: _105  and  _106
REMARK   43  A    between atoms: _111  and  _112
REMARK   44  A    between atoms: _114  and  _116
REMARK   45  A    between atoms: _116  and  _117
REMARK   46  A    between atoms: _116  and  _119
REMARK   47  A    between atoms: _119  and  _120
REMARK   48  A    between atoms: _123  and  _125
REMARK   49  A    between atoms: _125  and  _126
REMARK   50  A    between atoms: _125  and  _128
REMARK   51  A    between atoms: _128  and  _129
REMARK   52  A    between atoms: _129  and  _130
REMARK   53  A    between atoms: _133  and  _135
REMARK   54  A    between atoms: _135  and  _136
REMARK   55  A    between atoms: _135  and  _138
REMARK   56  A    between atoms: _138  and  _139
REMARK   57  A    between atoms: _144  and  _146
REMARK   58  A    between atoms: _146  and  _147
REMARK   59  A    between atoms: _146  and  _149
REMARK   60  A    between atoms: _152  and  _154
REMARK   61  A    between atoms: _154  and  _155
REMARK   62  A    between atoms: _154  and  _157
REMARK   63  A    between atoms: _157  and  _158
REMARK   64  A    between atoms: _161  and  _163
REMARK   65  A    between atoms: _163  and  _164
REMARK   66  A    between atoms: _163  and  _166
REMARK   67  A    between atoms: _166  and  _167
REMARK   68  A    between atoms: _167  and  _168
REMARK   69  A    between atoms: _172  and  _173
REMARK   70  A    between atoms: _178  and  _180
REMARK   71  A    between atoms: _180  and  _181
REMARK   72  A    between atoms: _180  and  _183
REMARK   73  A    between atoms: _183  and  _184
REMARK   74  A    between atoms: _187  and  _189
REMARK   75  A    between atoms: _189  and  _190
REMARK   76  A    between atoms: _192  and  _194
REMARK   77  A    between atoms: _194  and  _195
REMARK   78  A    between atoms: _194  and  _197
REMARK   79  A    between atoms: _197  and  _198
REMARK   80  A    between atoms: _198  and  _199
REMARK   81  A    between atoms: _202  and  _204
REMARK   82  A    between atoms: _204  and  _205
REMARK   83  A    between atoms: _204  and  _207
REMARK   84  A    between atoms: _207  and  _208
REMARK   85  A    between atoms: _208  and  _209
REMARK   86  A    between atoms: _212  and  _214
REMARK   87  A    between atoms: _214  and  _215
REMARK   88  A    between atoms: _218  and  _220
REMARK   89  A    between atoms: _220  and  _221
REMARK   90  A    between atoms: _224  and  _226
REMARK   91  A    between atoms: _226  and  _227
REMARK   92  A    between atoms: _229  and  _231
REMARK   93  A    between atoms: _231  and  _232
REMARK   94  A    between atoms: _234  and  _236
REMARK   95  A    between atoms: _236  and  _237
REMARK   96  A    between atoms: _236  and  _239
REMARK   97  A    between atoms: _239  and  _240
REMARK   98  A    between atoms: _243  and  _245
REMARK   99  A    between atoms: _245  and  _246
REMARK  100  A    between atoms: _245  and  _248
REMARK  101  A    between atoms: _248  and  _249
REMARK  102  A    between atoms: _255  and  _257
REMARK  103  A    between atoms: _257  and  _258
REMARK  104  A    between atoms: _257  and  _260
REMARK  105  A    between atoms: _260  and  _261
REMARK  106  A    between atoms: _264  and  _266
REMARK  107  A    between atoms: _266  and  _267
REMARK  108  A    between atoms: _266  and  _269
REMARK  109  A    between atoms: _269  and  _270
REMARK  110  A    between atoms: _275  and  _277
REMARK  111  A    between atoms: _277  and  _278
REMARK  112  A    between atoms: _277  and  _280
REMARK  113  A    between atoms: _280  and  _281
REMARK  114  A    between atoms: _281  and  _282
REMARK  115  A    between atoms: _287  and  _289
REMARK  116  A    between atoms: _289  and  _290
REMARK  117  A    between atoms: _289  and  _292
REMARK  118  A    between atoms: _292  and  _293
REMARK  119  A    between atoms: _298  and  _300
REMARK  120  A    between atoms: _300  and  _301
REMARK  121  A    between atoms: _300  and  _303
REMARK  122  A    between atoms: _303  and  _304
REMARK  123  A    between atoms: _314  and  _316
REMARK  124  A    between atoms: _316  and  _317
REMARK  125  A    between atoms: _316  and  _319
REMARK  126  A    between atoms: _322  and  _324
REMARK  127  A    between atoms: _324  and  _325
REMARK  128  A    between atoms: _328  and  _330
REMARK  129  A    between atoms: _330  and  _331
REMARK  130  A    between atoms: _330  and  _333
REMARK  131  A    between atoms: _333  and  _334
REMARK  132  A    between atoms: _334  and  _335
REMARK  133  A    between atoms: _338  and  _340
REMARK  134  A    between atoms: _340  and  _341
REMARK  135  A    between atoms: _340  and  _343
REMARK  136  A    between atoms: _343  and  _344
REMARK  137  A    between atoms: _344  and  _345
REMARK  138  A    between atoms: _351  and  _352
REMARK  139  A    between atoms: _357  and  _359
REMARK  140  A    between atoms: _359  and  _360
REMARK  141  A    between atoms: _359  and  _362
REMARK  142  A    between atoms: _362  and  _363
REMARK  143  A    between atoms: _365  and  _367
REMARK  144  A    between atoms: _367  and  _368
REMARK  145  A    between atoms: _367  and  _370
REMARK  146  A    between atoms: _370  and  _371
REMARK  147  A    between atoms: _374  and  _376
REMARK  148  A    between atoms: _376  and  _377
REMARK  149  A    between atoms: _379  and  _381
REMARK  150  A    between atoms: _381  and  _382
REMARK  151  A    between atoms: _381  and  _384
REMARK  152  A    between atoms: _387  and  _389
REMARK  153  A    between atoms: _389  and  _390
REMARK  154  A    between atoms: _392  and  _394
REMARK  155  A    between atoms: _394  and  _395
REMARK  156  A    between atoms: _394  and  _397
REMARK  157  A    between atoms: _397  and  _398
REMARK  158  A    between atoms: _403  and  _404
REMARK  159  A    between atoms: _406  and  _408
REMARK  160  A    between atoms: _408  and  _409
REMARK  161  A    between atoms: _408  and  _411
REMARK  162  A    between atoms: _411  and  _412
REMARK  163  A    between atoms: _412  and  _413
REMARK  164  A    between atoms: _416  and  _418
REMARK  165  A    between atoms: _418  and  _419
REMARK  166  A    between atoms: _418  and  _421
REMARK  167  A    between atoms: _421  and  _422
REMARK  168  A    between atoms: _426  and  _427
REMARK  169  A    between atoms: _432  and  _434
REMARK  170  A    between atoms: _434  and  _435
REMARK  171  A    between atoms: _434  and  _437
REMARK  172  A    between atoms: _437  and  _438
REMARK  173  A    between atoms: _440  and  _442
REMARK  174  A    between atoms: _442  and  _443
REMARK  175  A    between atoms: _442  and  _445
REMARK  176  A    between atoms: _445  and  _446
REMARK  177  A    between atoms: _449  and  _451
REMARK  178  A    between atoms: _451  and  _452
REMARK  179  A    between atoms: _451  and  _454
REMARK  180  A    between atoms: _457  and  _459
REMARK  181  A    between atoms: _459  and  _460
REMARK  182  A    between atoms: _459  and  _462
REMARK  183  A    between atoms: _462  and  _463
REMARK  184  A    between atoms: _466  and  _468
REMARK  185  A    between atoms: _468  and  _469
REMARK  186  A    between atoms: _468  and  _471
REMARK  187  A    between atoms: _471  and  _472
REMARK  188  A    between atoms: _474  and  _476
REMARK  189  A    between atoms: _476  and  _477
REMARK  190  A    between atoms: _480  and  _482
REMARK  191  A    between atoms: _482  and  _483
REMARK  192  A    between atoms: _482  and  _485
REMARK  193  A    between atoms: _485  and  _486
REMARK  194  A    between atoms: _486  and  _487
REMARK  195  A    between atoms: _489  and  _491
REMARK  196  A    between atoms: _491  and  _492
REMARK  197  A    between atoms: _491  and  _494
REMARK  198  A    between atoms: _494  and  _495
REMARK  199  A    between atoms: _498  and  _500
REMARK  200  A    between atoms: _500  and  _501
REMARK  201  A    between atoms: _500  and  _503
REMARK  202  A    between atoms: _503  and  _504
REMARK  203  A    between atoms: _504  and  _505
REMARK  204  A    between atoms: _505  and  _506
REMARK                            x       y       z     vdW  Elec       q    Type
REMARK                         _______ _______ _______ _____ _____    ______ ____
ROOT
ATOM      1  O   HOH     1       9.613  77.502  -9.946  0.00  0.00    +0.000 OA
ENDROOT
TORSDOF 0
REMARK  Name = ../refined-set-2016/4p5d/4p5d_pocket.pdb
REMARK  204 active torsions:
REMARK  status: ('A' for Active; 'I' for Inactive)
REMARK    1  A    between atoms: _1  and  _3
REMARK    2  A    between atoms: _3  and  _4
REMARK    3  A    between atoms: _3  and  _6
REMARK    4  A    between atoms: _6  and  _7
REMARK    5  A    between atoms: _12  and  _13
REMARK    6  A    between atoms: _15  and  _17
REMARK    7  A    between atoms: _17  and  _18
REMARK    8  A    between atoms: _17  and  _20
REMARK    9  A    between atoms: _20  and  _21
REMARK   10  A    between atoms: _27  and  _29
REMARK   11  A    between atoms: _29  and  _30
REMARK   12  A    between atoms: _29  and  _32
REMARK   13  A    between atoms: _34  and  _36
REMARK   14  A    between atoms: _36  and  _37
REMARK   15  A    between atoms: _39  and  _41
REMARK   16  A    between atoms: _41  and  _42
REMARK   17  A    between atoms: _41  and  _44
REMARK   18  A    between atoms: _44  and  _45
REMARK   19  A    between atoms: _47  and  _49
REMARK   20  A    between atoms: _49  and  _50
REMARK   21  A    between atoms: _49  and  _52
REMARK   22  A    between atoms: _52  and  _53
REMARK   23  A    between atoms: _56  and  _58
REMARK   24  A    between atoms: _58  and  _59
REMARK   25  A    between atoms: _58  and  _61
REMARK   26  A    between atoms: _61  and  _62
REMARK   27  A    between atoms: _62  and  _63
REMARK   28  A    between atoms: _63  and  _64
REMARK   29  A    between atoms: _73  and  _75
REMARK   30  A    between atoms: _75  and  _76
REMARK   31  A    between atoms: _78  and  _80
REMARK   32  A    between atoms: _80  and  _81
REMARK   33  A    between atoms: _83  and  _85
REMARK   34  A    between atoms: _85  and  _86
REMARK   35  A    between atoms: _85  and  _88
REMARK   36  A    between atoms: _88  and  _89
REMARK   37  A    between atoms: _89  and  _90
REMARK   38  A    between atoms: _90  and  _91
REMARK   39  A    between atoms: _100  and  _102
REMARK   40  A    between atoms: _102  and  _103
REMARK   41  A    between atoms: _102  and  _105
REMARK   42  A    between atoms: _105  and  _106
REMARK   43  A    between atoms: _111  and  _112
REMARK   44  A    between atoms: _114  and  _116
REMARK   45  A    between atoms: _116  and  _117
REMARK   46  A    between atoms: _116  and  _119
REMARK   47  A    between atoms: _119  and  _120
REMARK   48  A    between atoms: _123  and  _125
REMARK   49  A    between atoms: _125  and  _126
REMARK   50  A    between atoms: _125  and  _128
REMARK   51  A    between atoms: _128  and  _129
REMARK   52  A    between atoms: _129  and  _130
REMARK   53  A    between atoms: _133  and  _135
REMARK   54  A    between atoms: _135  and  _136
REMARK   55  A    between atoms: _135  and  _138
REMARK   56  A    between atoms: _138  and  _139
REMARK   57  A    between atoms: _144  and  _146
REMARK   58  A    between atoms: _146  and  _147
REMARK   59  A    between atoms: _146  and  _149
REMARK   60  A    between atoms: _152  and  _154
REMARK   61  A    between atoms: _154  and  _155
REMARK   62  A    between atoms: _154  and  _157
REMARK   63  A    between atoms: _157  and  _158
REMARK   64  A    between atoms: _161  and  _163
REMARK   65  A    between atoms: _163  and  _164
REMARK   66  A    between atoms: _163  and  _166
REMARK   67  A    between atoms: _166  and  _167
REMARK   68  A    between atoms: _167  and  _168
REMARK   69  A    between atoms: _172  and  _173
REMARK   70  A    between atoms: _178  and  _180
REMARK   71  A    between atoms: _180  and  _181
REMARK   72  A    between atoms: _180  and  _183
REMARK   73  A    between atoms: _183  and  _184
REMARK   74  A    between atoms: _187  and  _189
REMARK   75  A    between atoms: _189  and  _190
REMARK   76  A    between atoms: _192  and  _194
REMARK   77  A    between atoms: _194  and  _195
REMARK   78  A    between atoms: _194  and  _197
REMARK   79  A    between atoms: _197  and  _198
REMARK   80  A    between atoms: _198  and  _199
REMARK   81  A    between atoms: _202  and  _204
REMARK   82  A    between atoms: _204  and  _205
REMARK   83  A    between atoms: _204  and  _207
REMARK   84  A    between atoms: _207  and  _208
REMARK   85  A    between atoms: _208  and  _209
REMARK   86  A    between atoms: _212  and  _214
REMARK   87  A    between atoms: _214  and  _215
REMARK   88  A    between atoms: _218  and  _220
REMARK   89  A    between atoms: _220  and  _221
REMARK   90  A    between atoms: _224  and  _226
REMARK   91  A    between atoms: _226  and  _227
REMARK   92  A    between atoms: _229  and  _231
REMARK   93  A    between atoms: _231  and  _232
REMARK   94  A    between atoms: _234  and  _236
REMARK   95  A    between atoms: _236  and  _237
REMARK   96  A    between atoms: _236  and  _239
REMARK   97  A    between atoms: _239  and  _240
REMARK   98  A    between atoms: _243  and  _245
REMARK   99  A    between atoms: _245  and  _246
REMARK  100  A    between atoms: _245  and  _248
REMARK  101  A    between atoms: _248  and  _249
REMARK  102  A    between atoms: _255  and  _257
REMARK  103  A    between atoms: _257  and  _258
REMARK  104  A    between atoms: _257  and  _260
REMARK  105  A    between atoms: _260  and  _261
REMARK  106  A    between atoms: _264  and  _266
REMARK  107  A    between atoms: _266  and  _267
REMARK  108  A    between atoms: _266  and  _269
REMARK  109  A    between atoms: _269  and  _270
REMARK  110  A    between atoms: _275  and  _277
REMARK  111  A    between atoms: _277  and  _278
REMARK  112  A    between atoms: _277  and  _280
REMARK  113  A    between atoms: _280  and  _281
REMARK  114  A    between atoms: _281  and  _282
REMARK  115  A    between atoms: _287  and  _289
REMARK  116  A    between atoms: _289  and  _290
REMARK  117  A    between atoms: _289  and  _292
REMARK  118  A    between atoms: _292  and  _293
REMARK  119  A    between atoms: _298  and  _300
REMARK  120  A    between atoms: _300  and  _301
REMARK  121  A    between atoms: _300  and  _303
REMARK  122  A    between atoms: _303  and  _304
REMARK  123  A    between atoms: _314  and  _316
REMARK  124  A    between atoms: _316  and  _317
REMARK  125  A    between atoms: _316  and  _319
REMARK  126  A    between atoms: _322  and  _324
REMARK  127  A    between atoms: _324  and  _325
REMARK  128  A    between atoms: _328  and  _330
REMARK  129  A    between atoms: _330  and  _331
REMARK  130  A    between atoms: _330  and  _333
REMARK  131  A    between atoms: _333  and  _334
REMARK  132  A    between atoms: _334  and  _335
REMARK  133  A    between atoms: _338  and  _340
REMARK  134  A    between atoms: _340  and  _341
REMARK  135  A    between atoms: _340  and  _343
REMARK  136  A    between atoms: _343  and  _344
REMARK  137  A    between atoms: _344  and  _345
REMARK  138  A    between atoms: _351  and  _352
REMARK  139  A    between atoms: _357  and  _359
REMARK  140  A    between atoms: _359  and  _360
REMARK  141  A    between atoms: _359  and  _362
REMARK  142  A    between atoms: _362  and  _363
REMARK  143  A    between atoms: _365  and  _367
REMARK  144  A    between atoms: _367  and  _368
REMARK  145  A    between atoms: _367  and  _370
REMARK  146  A    between atoms: _370  and  _371
REMARK  147  A    between atoms: _374  and  _376
REMARK  148  A    between atoms: _376  and  _377
REMARK  149  A    between atoms: _379  and  _381
REMARK  150  A    between atoms: _381  and  _382
REMARK  151  A    between atoms: _381  and  _384
REMARK  152  A    between atoms: _387  and  _389
REMARK  153  A    between atoms: _389  and  _390
REMARK  154  A    between atoms: _392  and  _394
REMARK  155  A    between atoms: _394  and  _395
REMARK  156  A    between atoms: _394  and  _397
REMARK  157  A    between atoms: _397  and  _398
REMARK  158  A    between atoms: _403  and  _404
REMARK  159  A    between atoms: _406  and  _408
REMARK  160  A    between atoms: _408  and  _409
REMARK  161  A    between atoms: _408  and  _411
REMARK  162  A    between atoms: _411  and  _412
REMARK  163  A    between atoms: _412  and  _413
REMARK  164  A    between atoms: _416  and  _418
REMARK  165  A    between atoms: _418  and  _419
REMARK  166  A    between atoms: _418  and  _421
REMARK  167  A    between atoms: _421  and  _422
REMARK  168  A    between atoms: _426  and  _427
REMARK  169  A    between atoms: _432  and  _434
REMARK  170  A    between atoms: _434  and  _435
REMARK  171  A    between atoms: _434  and  _437
REMARK  172  A    between atoms: _437  and  _438
REMARK  173  A    between atoms: _440  and  _442
REMARK  174  A    between atoms: _442  and  _443
REMARK  175  A    between atoms: _442  and  _445
REMARK  176  A    between atoms: _445  and  _446
REMARK  177  A    between atoms: _449  and  _451
REMARK  178  A    between atoms: _451  and  _452
REMARK  179  A    between atoms: _451  and  _454
REMARK  180  A    between atoms: _457  and  _459
REMARK  181  A    between atoms: _459  and  _460
REMARK  182  A    between atoms: _459  and  _462
REMARK  183  A    between atoms: _462  and  _463
REMARK  184  A    between atoms: _466  and  _468
REMARK  185  A    between atoms: _468  and  _469
REMARK  186  A    between atoms: _468  and  _471
REMARK  187  A    between atoms: _471  and  _472
REMARK  188  A    between atoms: _474  and  _476
REMARK  189  A    between atoms: _476  and  _477
REMARK  190  A    between atoms: _480  and  _482
REMARK  191  A    between atoms: _482  and  _483
REMARK  192  A    between atoms: _482  and  _485
REMARK  193  A    between atoms: _485  and  _486
REMARK  194  A    between atoms: _486  and  _487
REMARK  195  A    between atoms: _489  and  _491
REMARK  196  A    between atoms: _491  and  _492
REMARK  197  A    between atoms: _491  and  _494
REMARK  198  A    between atoms: _494  and  _495
REMARK  199  A    between atoms: _498  and  _500
REMARK  200  A    between atoms: _500  and  _501
REMARK  201  A    between atoms: _500  and  _503
REMARK  202  A    between atoms: _503  and  _504
REMARK  203  A    between atoms: _504  and  _505
REMARK  204  A    between atoms: _505  and  _506
REMARK                            x       y       z     vdW  Elec       q    Type
REMARK                         _______ _______ _______ _____ _____    ______ ____
ROOT
ATOM      1  O   HOH     1       0.460  83.907 -12.295  0.00  0.00    +0.000 OA
ENDROOT
TORSDOF 0
REMARK  Name = ../refined-set-2016/4p5d/4p5d_pocket.pdb
REMARK  204 active torsions:
REMARK  status: ('A' for Active; 'I' for Inactive)
REMARK    1  A    between atoms: _1  and  _3
REMARK    2  A    between atoms: _3  and  _4
REMARK    3  A    between atoms: _3  and  _6
REMARK    4  A    between atoms: _6  and  _7
REMARK    5  A    between atoms: _12  and  _13
REMARK    6  A    between atoms: _15  and  _17
REMARK    7  A    between atoms: _17  and  _18
REMARK    8  A    between atoms: _17  and  _20
REMARK    9  A    between atoms: _20  and  _21
REMARK   10  A    between atoms: _27  and  _29
REMARK   11  A    between atoms: _29  and  _30
REMARK   12  A    between atoms: _29  and  _32
REMARK   13  A    between atoms: _34  and  _36
REMARK   14  A    between atoms: _36  and  _37
REMARK   15  A    between atoms: _39  and  _41
REMARK   16  A    between atoms: _41  and  _42
REMARK   17  A    between atoms: _41  and  _44
REMARK   18  A    between atoms: _44  and  _45
REMARK   19  A    between atoms: _47  and  _49
REMARK   20  A    between atoms: _49  and  _50
REMARK   21  A    between atoms: _49  and  _52
REMARK   22  A    between atoms: _52  and  _53
REMARK   23  A    between atoms: _56  and  _58
REMARK   24  A    between atoms: _58  and  _59
REMARK   25  A    between atoms: _58  and  _61
REMARK   26  A    between atoms: _61  and  _62
REMARK   27  A    between atoms: _62  and  _63
REMARK   28  A    between atoms: _63  and  _64
REMARK   29  A    between atoms: _73  and  _75
REMARK   30  A    between atoms: _75  and  _76
REMARK   31  A    between atoms: _78  and  _80
REMARK   32  A    between atoms: _80  and  _81
REMARK   33  A    between atoms: _83  and  _85
REMARK   34  A    between atoms: _85  and  _86
REMARK   35  A    between atoms: _85  and  _88
REMARK   36  A    between atoms: _88  and  _89
REMARK   37  A    between atoms: _89  and  _90
REMARK   38  A    between atoms: _90  and  _91
REMARK   39  A    between atoms: _100  and  _102
REMARK   40  A    between atoms: _102  and  _103
REMARK   41  A    between atoms: _102  and  _105
REMARK   42  A    between atoms: _105  and  _106
REMARK   43  A    between atoms: _111  and  _112
REMARK   44  A    between atoms: _114  and  _116
REMARK   45  A    between atoms: _116  and  _117
REMARK   46  A    between atoms: _116  and  _119
REMARK   47  A    between atoms: _119  and  _120
REMARK   48  A    between atoms: _123  and  _125
REMARK   49  A    between atoms: _125  and  _126
REMARK   50  A    between atoms: _125  and  _128
REMARK   51  A    between atoms: _128  and  _129
REMARK   52  A    between atoms: _129  and  _130
REMARK   53  A    between atoms: _133  and  _135
REMARK   54  A    between atoms: _135  and  _136
REMARK   55  A    between atoms: _135  and  _138
REMARK   56  A    between atoms: _138  and  _139
REMARK   57  A    between atoms: _144  and  _146
REMARK   58  A    between atoms: _146  and  _147
REMARK   59  A    between atoms: _146  and  _149
REMARK   60  A    between atoms: _152  and  _154
REMARK   61  A    between atoms: _154  and  _155
REMARK   62  A    between atoms: _154  and  _157
REMARK   63  A    between atoms: _157  and  _158
REMARK   64  A    between atoms: _161  and  _163
REMARK   65  A    between atoms: _163  and  _164
REMARK   66  A    between atoms: _163  and  _166
REMARK   67  A    between atoms: _166  and  _167
REMARK   68  A    between atoms: _167  and  _168
REMARK   69  A    between atoms: _172  and  _173
REMARK   70  A    between atoms: _178  and  _180
REMARK   71  A    between atoms: _180  and  _181
REMARK   72  A    between atoms: _180  and  _183
REMARK   73  A    between atoms: _183  and  _184
REMARK   74  A    between atoms: _187  and  _189
REMARK   75  A    between atoms: _189  and  _190
REMARK   76  A    between atoms: _192  and  _194
REMARK   77  A    between atoms: _194  and  _195
REMARK   78  A    between atoms: _194  and  _197
REMARK   79  A    between atoms: _197  and  _198
REMARK   80  A    between atoms: _198  and  _199
REMARK   81  A    between atoms: _202  and  _204
REMARK   82  A    between atoms: _204  and  _205
REMARK   83  A    between atoms: _204  and  _207
REMARK   84  A    between atoms: _207  and  _208
REMARK   85  A    between atoms: _208  and  _209
REMARK   86  A    between atoms: _212  and  _214
REMARK   87  A    between atoms: _214  and  _215
REMARK   88  A    between atoms: _218  and  _220
REMARK   89  A    between atoms: _220  and  _221
REMARK   90  A    between atoms: _224  and  _226
REMARK   91  A    between atoms: _226  and  _227
REMARK   92  A    between atoms: _229  and  _231
REMARK   93  A    between atoms: _231  and  _232
REMARK   94  A    between atoms: _234  and  _236
REMARK   95  A    between atoms: _236  and  _237
REMARK   96  A    between atoms: _236  and  _239
REMARK   97  A    between atoms: _239  and  _240
REMARK   98  A    between atoms: _243  and  _245
REMARK   99  A    between atoms: _245  and  _246
REMARK  100  A    between atoms: _245  and  _248
REMARK  101  A    between atoms: _248  and  _249
REMARK  102  A    between atoms: _255  and  _257
REMARK  103  A    between atoms: _257  and  _258
REMARK  104  A    between atoms: _257  and  _260
REMARK  105  A    between atoms: _260  and  _261
REMARK  106  A    between atoms: _264  and  _266
REMARK  107  A    between atoms: _266  and  _267
REMARK  108  A    between atoms: _266  and  _269
REMARK  109  A    between atoms: _269  and  _270
REMARK  110  A    between atoms: _275  and  _277
REMARK  111  A    between atoms: _277  and  _278
REMARK  112  A    between atoms: _277  and  _280
REMARK  113  A    between atoms: _280  and  _281
REMARK  114  A    between atoms: _281  and  _282
REMARK  115  A    between atoms: _287  and  _289
REMARK  116  A    between atoms: _289  and  _290
REMARK  117  A    between atoms: _289  and  _292
REMARK  118  A    between atoms: _292  and  _293
REMARK  119  A    between atoms: _298  and  _300
REMARK  120  A    between atoms: _300  and  _301
REMARK  121  A    between atoms: _300  and  _303
REMARK  122  A    between atoms: _303  and  _304
REMARK  123  A    between atoms: _314  and  _316
REMARK  124  A    between atoms: _316  and  _317
REMARK  125  A    between atoms: _316  and  _319
REMARK  126  A    between atoms: _322  and  _324
REMARK  127  A    between atoms: _324  and  _325
REMARK  128  A    between atoms: _328  and  _330
REMARK  129  A    between atoms: _330  and  _331
REMARK  130  A    between atoms: _330  and  _333
REMARK  131  A    between atoms: _333  and  _334
REMARK  132  A    between atoms: _334  and  _335
REMARK  133  A    between atoms: _338  and  _340
REMARK  134  A    between atoms: _340  and  _341
REMARK  135  A    between atoms: _340  and  _343
REMARK  136  A    between atoms: _343  and  _344
REMARK  137  A    between atoms: _344  and  _345
REMARK  138  A    between atoms: _351  and  _352
REMARK  139  A    between atoms: _357  and  _359
REMARK  140  A    between atoms: _359  and  _360
REMARK  141  A    between atoms: _359  and  _362
REMARK  142  A    between atoms: _362  and  _363
REMARK  143  A    between atoms: _365  and  _367
REMARK  144  A    between atoms: _367  and  _368
REMARK  145  A    between atoms: _367  and  _370
REMARK  146  A    between atoms: _370  and  _371
REMARK  147  A    between atoms: _374  and  _376
REMARK  148  A    between atoms: _376  and  _377
REMARK  149  A    between atoms: _379  and  _381
REMARK  150  A    between atoms: _381  and  _382
REMARK  151  A    between atoms: _381  and  _384
REMARK  152  A    between atoms: _387  and  _389
REMARK  153  A    between atoms: _389  and  _390
REMARK  154  A    between atoms: _392  and  _394
REMARK  155  A    between atoms: _394  and  _395
REMARK  156  A    between atoms: _394  and  _397
REMARK  157  A    between atoms: _397  and  _398
REMARK  158  A    between atoms: _403  and  _404
REMARK  159  A    between atoms: _406  and  _408
REMARK  160  A    between atoms: _408  and  _409
REMARK  161  A    between atoms: _408  and  _411
REMARK  162  A    between atoms: _411  and  _412
REMARK  163  A    between atoms: _412  and  _413
REMARK  164  A    between atoms: _416  and  _418
REMARK  165  A    between atoms: _418  and  _419
REMARK  166  A    between atoms: _418  and  _421
REMARK  167  A    between atoms: _421  and  _422
REMARK  168  A    between atoms: _426  and  _427
REMARK  169  A    between atoms: _432  and  _434
REMARK  170  A    between atoms: _434  and  _435
REMARK  171  A    between atoms: _434  and  _437
REMARK  172  A    between atoms: _437  and  _438
REMARK  173  A    between atoms: _440  and  _442
REMARK  174  A    between atoms: _442  and  _443
REMARK  175  A    between atoms: _442  and  _445
REMARK  176  A    between atoms: _445  and  _446
REMARK  177  A    between atoms: _449  and  _451
REMARK  178  A    between atoms: _451  and  _452
REMARK  179  A    between atoms: _451  and  _454
REMARK  180  A    between atoms: _457  and  _459
REMARK  181  A    between atoms: _459  and  _460
REMARK  182  A    between atoms: _459  and  _462
REMARK  183  A    between atoms: _462  and  _463
REMARK  184  A    between atoms: _466  and  _468
REMARK  185  A    between atoms: _468  and  _469
REMARK  186  A    between atoms: _468  and  _471
REMARK  187  A    between atoms: _471  and  _472
REMARK  188  A    between atoms: _474  and  _476
REMARK  189  A    between atoms: _476  and  _477
REMARK  190  A    between atoms: _480  and  _482
REMARK  191  A    between atoms: _482  and  _483
REMARK  192  A    between atoms: _482  and  _485
REMARK  193  A    between atoms: _485  and  _486
REMARK  194  A    between atoms: _486  and  _487
REMARK  195  A    between atoms: _489  and  _491
REMARK  196  A    between atoms: _491  and  _492
REMARK  197  A    between atoms: _491  and  _494
REMARK  198  A    between atoms: _494  and  _495
REMARK  199  A    between atoms: _498  and  _500
REMARK  200  A    between atoms: _500  and  _501
REMARK  201  A    between atoms: _500  and  _503
REMARK  202  A    between atoms: _503  and  _504
REMARK  203  A    between atoms: _504  and  _505
REMARK  204  A    between atoms: _505  and  _506
REMARK                            x       y       z     vdW  Elec       q    Type
REMARK                         _______ _______ _______ _____ _____    ______ ____
ROOT
ATOM      1  O   HOH     1       4.600  79.098 -13.152  0.00  0.00    +0.000 OA
ENDROOT
TORSDOF 0
REMARK  Name = ../refined-set-2016/4p5d/4p5d_pocket.pdb
REMARK  204 active torsions:
REMARK  status: ('A' for Active; 'I' for Inactive)
REMARK    1  A    between atoms: _1  and  _3
REMARK    2  A    between atoms: _3  and  _4
REMARK    3  A    between atoms: _3  and  _6
REMARK    4  A    between atoms: _6  and  _7
REMARK    5  A    between atoms: _12  and  _13
REMARK    6  A    between atoms: _15  and  _17
REMARK    7  A    between atoms: _17  and  _18
REMARK    8  A    between atoms: _17  and  _20
REMARK    9  A    between atoms: _20  and  _21
REMARK   10  A    between atoms: _27  and  _29
REMARK   11  A    between atoms: _29  and  _30
REMARK   12  A    between atoms: _29  and  _32
REMARK   13  A    between atoms: _34  and  _36
REMARK   14  A    between atoms: _36  and  _37
REMARK   15  A    between atoms: _39  and  _41
REMARK   16  A    between atoms: _41  and  _42
REMARK   17  A    between atoms: _41  and  _44
REMARK   18  A    between atoms: _44  and  _45
REMARK   19  A    between atoms: _47  and  _49
REMARK   20  A    between atoms: _49  and  _50
REMARK   21  A    between atoms: _49  and  _52
REMARK   22  A    between atoms: _52  and  _53
REMARK   23  A    between atoms: _56  and  _58
REMARK   24  A    between atoms: _58  and  _59
REMARK   25  A    between atoms: _58  and  _61
REMARK   26  A    between atoms: _61  and  _62
REMARK   27  A    between atoms: _62  and  _63
REMARK   28  A    between atoms: _63  and  _64
REMARK   29  A    between atoms: _73  and  _75
REMARK   30  A    between atoms: _75  and  _76
REMARK   31  A    between atoms: _78  and  _80
REMARK   32  A    between atoms: _80  and  _81
REMARK   33  A    between atoms: _83  and  _85
REMARK   34  A    between atoms: _85  and  _86
REMARK   35  A    between atoms: _85  and  _88
REMARK   36  A    between atoms: _88  and  _89
REMARK   37  A    between atoms: _89  and  _90
REMARK   38  A    between atoms: _90  and  _91
REMARK   39  A    between atoms: _100  and  _102
REMARK   40  A    between atoms: _102  and  _103
REMARK   41  A    between atoms: _102  and  _105
REMARK   42  A    between atoms: _105  and  _106
REMARK   43  A    between atoms: _111  and  _112
REMARK   44  A    between atoms: _114  and  _116
REMARK   45  A    between atoms: _116  and  _117
REMARK   46  A    between atoms: _116  and  _119
REMARK   47  A    between atoms: _119  and  _120
REMARK   48  A    between atoms: _123  and  _125
REMARK   49  A    between atoms: _125  and  _126
REMARK   50  A    between atoms: _125  and  _128
REMARK   51  A    between atoms: _128  and  _129
REMARK   52  A    between atoms: _129  and  _130
REMARK   53  A    between atoms: _133  and  _135
REMARK   54  A    between atoms: _135  and  _136
REMARK   55  A    between atoms: _135  and  _138
REMARK   56  A    between atoms: _138  and  _139
REMARK   57  A    between atoms: _144  and  _146
REMARK   58  A    between atoms: _146  and  _147
REMARK   59  A    between atoms: _146  and  _149
REMARK   60  A    between atoms: _152  and  _154
REMARK   61  A    between atoms: _154  and  _155
REMARK   62  A    between atoms: _154  and  _157
REMARK   63  A    between atoms: _157  and  _158
REMARK   64  A    between atoms: _161  and  _163
REMARK   65  A    between atoms: _163  and  _164
REMARK   66  A    between atoms: _163  and  _166
REMARK   67  A    between atoms: _166  and  _167
REMARK   68  A    between atoms: _167  and  _168
REMARK   69  A    between atoms: _172  and  _173
REMARK   70  A    between atoms: _178  and  _180
REMARK   71  A    between atoms: _180  and  _181
REMARK   72  A    between atoms: _180  and  _183
REMARK   73  A    between atoms: _183  and  _184
REMARK   74  A    between atoms: _187  and  _189
REMARK   75  A    between atoms: _189  and  _190
REMARK   76  A    between atoms: _192  and  _194
REMARK   77  A    between atoms: _194  and  _195
REMARK   78  A    between atoms: _194  and  _197
REMARK   79  A    between atoms: _197  and  _198
REMARK   80  A    between atoms: _198  and  _199
REMARK   81  A    between atoms: _202  and  _204
REMARK   82  A    between atoms: _204  and  _205
REMARK   83  A    between atoms: _204  and  _207
REMARK   84  A    between atoms: _207  and  _208
REMARK   85  A    between atoms: _208  and  _209
REMARK   86  A    between atoms: _212  and  _214
REMARK   87  A    between atoms: _214  and  _215
REMARK   88  A    between atoms: _218  and  _220
REMARK   89  A    between atoms: _220  and  _221
REMARK   90  A    between atoms: _224  and  _226
REMARK   91  A    between atoms: _226  and  _227
REMARK   92  A    between atoms: _229  and  _231
REMARK   93  A    between atoms: _231  and  _232
REMARK   94  A    between atoms: _234  and  _236
REMARK   95  A    between atoms: _236  and  _237
REMARK   96  A    between atoms: _236  and  _239
REMARK   97  A    between atoms: _239  and  _240
REMARK   98  A    between atoms: _243  and  _245
REMARK   99  A    between atoms: _245  and  _246
REMARK  100  A    between atoms: _245  and  _248
REMARK  101  A    between atoms: _248  and  _249
REMARK  102  A    between atoms: _255  and  _257
REMARK  103  A    between atoms: _257  and  _258
REMARK  104  A    between atoms: _257  and  _260
REMARK  105  A    between atoms: _260  and  _261
REMARK  106  A    between atoms: _264  and  _266
REMARK  107  A    between atoms: _266  and  _267
REMARK  108  A    between atoms: _266  and  _269
REMARK  109  A    between atoms: _269  and  _270
REMARK  110  A    between atoms: _275  and  _277
REMARK  111  A    between atoms: _277  and  _278
REMARK  112  A    between atoms: _277  and  _280
REMARK  113  A    between atoms: _280  and  _281
REMARK  114  A    between atoms: _281  and  _282
REMARK  115  A    between atoms: _287  and  _289
REMARK  116  A    between atoms: _289  and  _290
REMARK  117  A    between atoms: _289  and  _292
REMARK  118  A    between atoms: _292  and  _293
REMARK  119  A    between atoms: _298  and  _300
REMARK  120  A    between atoms: _300  and  _301
REMARK  121  A    between atoms: _300  and  _303
REMARK  122  A    between atoms: _303  and  _304
REMARK  123  A    between atoms: _314  and  _316
REMARK  124  A    between atoms: _316  and  _317
REMARK  125  A    between atoms: _316  and  _319
REMARK  126  A    between atoms: _322  and  _324
REMARK  127  A    between atoms: _324  and  _325
REMARK  128  A    between atoms: _328  and  _330
REMARK  129  A    between atoms: _330  and  _331
REMARK  130  A    between atoms: _330  and  _333
REMARK  131  A    between atoms: _333  and  _334
REMARK  132  A    between atoms: _334  and  _335
REMARK  133  A    between atoms: _338  and  _340
REMARK  134  A    between atoms: _340  and  _341
REMARK  135  A    between atoms: _340  and  _343
REMARK  136  A    between atoms: _343  and  _344
REMARK  137  A    between atoms: _344  and  _345
REMARK  138  A    between atoms: _351  and  _352
REMARK  139  A    between atoms: _357  and  _359
REMARK  140  A    between atoms: _359  and  _360
REMARK  141  A    between atoms: _359  and  _362
REMARK  142  A    between atoms: _362  and  _363
REMARK  143  A    between atoms: _365  and  _367
REMARK  144  A    between atoms: _367  and  _368
REMARK  145  A    between atoms: _367  and  _370
REMARK  146  A    between atoms: _370  and  _371
REMARK  147  A    between atoms: _374  and  _376
REMARK  148  A    between atoms: _376  and  _377
REMARK  149  A    between atoms: _379  and  _381
REMARK  150  A    between atoms: _381  and  _382
REMARK  151  A    between atoms: _381  and  _384
REMARK  152  A    between atoms: _387  and  _389
REMARK  153  A    between atoms: _389  and  _390
REMARK  154  A    between atoms: _392  and  _394
REMARK  155  A    between atoms: _394  and  _395
REMARK  156  A    between atoms: _394  and  _397
REMARK  157  A    between atoms: _397  and  _398
REMARK  158  A    between atoms: _403  and  _404
REMARK  159  A    between atoms: _406  and  _408
REMARK  160  A    between atoms: _408  and  _409
REMARK  161  A    between atoms: _408  and  _411
REMARK  162  A    between atoms: _411  and  _412
REMARK  163  A    between atoms: _412  and  _413
REMARK  164  A    between atoms: _416  and  _418
REMARK  165  A    between atoms: _418  and  _419
REMARK  166  A    between atoms: _418  and  _421
REMARK  167  A    between atoms: _421  and  _422
REMARK  168  A    between atoms: _426  and  _427
REMARK  169  A    between atoms: _432  and  _434
REMARK  170  A    between atoms: _434  and  _435
REMARK  171  A    between atoms: _434  and  _437
REMARK  172  A    between atoms: _437  and  _438
REMARK  173  A    between atoms: _440  and  _442
REMARK  174  A    between atoms: _442  and  _443
REMARK  175  A    between atoms: _442  and  _445
REMARK  176  A    between atoms: _445  and  _446
REMARK  177  A    between atoms: _449  and  _451
REMARK  178  A    between atoms: _451  and  _452
REMARK  179  A    between atoms: _451  and  _454
REMARK  180  A    between atoms: _457  and  _459
REMARK  181  A    between atoms: _459  and  _460
REMARK  182  A    between atoms: _459  and  _462
REMARK  183  A    between atoms: _462  and  _463
REMARK  184  A    between atoms: _466  and  _468
REMARK  185  A    between atoms: _468  and  _469
REMARK  186  A    between atoms: _468  and  _471
REMARK  187  A    between atoms: _471  and  _472
REMARK  188  A    between atoms: _474  and  _476
REMARK  189  A    between atoms: _476  and  _477
REMARK  190  A    between atoms: _480  and  _482
REMARK  191  A    between atoms: _482  and  _483
REMARK  192  A    between atoms: _482  and  _485
REMARK  193  A    between atoms: _485  and  _486
REMARK  194  A    between atoms: _486  and  _487
REMARK  195  A    between atoms: _489  and  _491
REMARK  196  A    between atoms: _491  and  _492
REMARK  197  A    between atoms: _491  and  _494
REMARK  198  A    between atoms: _494  and  _495
REMARK  199  A    between atoms: _498  and  _500
REMARK  200  A    between atoms: _500  and  _501
REMARK  201  A    between atoms: _500  and  _503
REMARK  202  A    between atoms: _503  and  _504
REMARK  203  A    between atoms: _504  and  _505
REMARK  204  A    between atoms: _505  and  _506
REMARK                            x       y       z     vdW  Elec       q    Type
REMARK                         _______ _______ _______ _____ _____    ______ ____
ROOT
ATOM      1  O   HOH     1      -1.165  78.838  -7.131  0.00  0.00    +0.000 OA
ENDROOT
TORSDOF 0
REMARK  Name = ../refined-set-2016/4p5d/4p5d_pocket.pdb
REMARK  204 active torsions:
REMARK  status: ('A' for Active; 'I' for Inactive)
REMARK    1  A    between atoms: _1  and  _3
REMARK    2  A    between atoms: _3  and  _4
REMARK    3  A    between atoms: _3  and  _6
REMARK    4  A    between atoms: _6  and  _7
REMARK    5  A    between atoms: _12  and  _13
REMARK    6  A    between atoms: _15  and  _17
REMARK    7  A    between atoms: _17  and  _18
REMARK    8  A    between atoms: _17  and  _20
REMARK    9  A    between atoms: _20  and  _21
REMARK   10  A    between atoms: _27  and  _29
REMARK   11  A    between atoms: _29  and  _30
REMARK   12  A    between atoms: _29  and  _32
REMARK   13  A    between atoms: _34  and  _36
REMARK   14  A    between atoms: _36  and  _37
REMARK   15  A    between atoms: _39  and  _41
REMARK   16  A    between atoms: _41  and  _42
REMARK   17  A    between atoms: _41  and  _44
REMARK   18  A    between atoms: _44  and  _45
REMARK   19  A    between atoms: _47  and  _49
REMARK   20  A    between atoms: _49  and  _50
REMARK   21  A    between atoms: _49  and  _52
REMARK   22  A    between atoms: _52  and  _53
REMARK   23  A    between atoms: _56  and  _58
REMARK   24  A    between atoms: _58  and  _59
REMARK   25  A    between atoms: _58  and  _61
REMARK   26  A    between atoms: _61  and  _62
REMARK   27  A    between atoms: _62  and  _63
REMARK   28  A    between atoms: _63  and  _64
REMARK   29  A    between atoms: _73  and  _75
REMARK   30  A    between atoms: _75  and  _76
REMARK   31  A    between atoms: _78  and  _80
REMARK   32  A    between atoms: _80  and  _81
REMARK   33  A    between atoms: _83  and  _85
REMARK   34  A    between atoms: _85  and  _86
REMARK   35  A    between atoms: _85  and  _88
REMARK   36  A    between atoms: _88  and  _89
REMARK   37  A    between atoms: _89  and  _90
REMARK   38  A    between atoms: _90  and  _91
REMARK   39  A    between atoms: _100  and  _102
REMARK   40  A    between atoms: _102  and  _103
REMARK   41  A    between atoms: _102  and  _105
REMARK   42  A    between atoms: _105  and  _106
REMARK   43  A    between atoms: _111  and  _112
REMARK   44  A    between atoms: _114  and  _116
REMARK   45  A    between atoms: _116  and  _117
REMARK   46  A    between atoms: _116  and  _119
REMARK   47  A    between atoms: _119  and  _120
REMARK   48  A    between atoms: _123  and  _125
REMARK   49  A    between atoms: _125  and  _126
REMARK   50  A    between atoms: _125  and  _128
REMARK   51  A    between atoms: _128  and  _129
REMARK   52  A    between atoms: _129  and  _130
REMARK   53  A    between atoms: _133  and  _135
REMARK   54  A    between atoms: _135  and  _136
REMARK   55  A    between atoms: _135  and  _138
REMARK   56  A    between atoms: _138  and  _139
REMARK   57  A    between atoms: _144  and  _146
REMARK   58  A    between atoms: _146  and  _147
REMARK   59  A    between atoms: _146  and  _149
REMARK   60  A    between atoms: _152  and  _154
REMARK   61  A    between atoms: _154  and  _155
REMARK   62  A    between atoms: _154  and  _157
REMARK   63  A    between atoms: _157  and  _158
REMARK   64  A    between atoms: _161  and  _163
REMARK   65  A    between atoms: _163  and  _164
REMARK   66  A    between atoms: _163  and  _166
REMARK   67  A    between atoms: _166  and  _167
REMARK   68  A    between atoms: _167  and  _168
REMARK   69  A    between atoms: _172  and  _173
REMARK   70  A    between atoms: _178  and  _180
REMARK   71  A    between atoms: _180  and  _181
REMARK   72  A    between atoms: _180  and  _183
REMARK   73  A    between atoms: _183  and  _184
REMARK   74  A    between atoms: _187  and  _189
REMARK   75  A    between atoms: _189  and  _190
REMARK   76  A    between atoms: _192  and  _194
REMARK   77  A    between atoms: _194  and  _195
REMARK   78  A    between atoms: _194  and  _197
REMARK   79  A    between atoms: _197  and  _198
REMARK   80  A    between atoms: _198  and  _199
REMARK   81  A    between atoms: _202  and  _204
REMARK   82  A    between atoms: _204  and  _205
REMARK   83  A    between atoms: _204  and  _207
REMARK   84  A    between atoms: _207  and  _208
REMARK   85  A    between atoms: _208  and  _209
REMARK   86  A    between atoms: _212  and  _214
REMARK   87  A    between atoms: _214  and  _215
REMARK   88  A    between atoms: _218  and  _220
REMARK   89  A    between atoms: _220  and  _221
REMARK   90  A    between atoms: _224  and  _226
REMARK   91  A    between atoms: _226  and  _227
REMARK   92  A    between atoms: _229  and  _231
REMARK   93  A    between atoms: _231  and  _232
REMARK   94  A    between atoms: _234  and  _236
REMARK   95  A    between atoms: _236  and  _237
REMARK   96  A    between atoms: _236  and  _239
REMARK   97  A    between atoms: _239  and  _240
REMARK   98  A    between atoms: _243  and  _245
REMARK   99  A    between atoms: _245  and  _246
REMARK  100  A    between atoms: _245  and  _248
REMARK  101  A    between atoms: _248  and  _249
REMARK  102  A    between atoms: _255  and  _257
REMARK  103  A    between atoms: _257  and  _258
REMARK  104  A    between atoms: _257  and  _260
REMARK  105  A    between atoms: _260  and  _261
REMARK  106  A    between atoms: _264  and  _266
REMARK  107  A    between atoms: _266  and  _267
REMARK  108  A    between atoms: _266  and  _269
REMARK  109  A    between atoms: _269  and  _270
REMARK  110  A    between atoms: _275  and  _277
REMARK  111  A    between atoms: _277  and  _278
REMARK  112  A    between atoms: _277  and  _280
REMARK  113  A    between atoms: _280  and  _281
REMARK  114  A    between atoms: _281  and  _282
REMARK  115  A    between atoms: _287  and  _289
REMARK  116  A    between atoms: _289  and  _290
REMARK  117  A    between atoms: _289  and  _292
REMARK  118  A    between atoms: _292  and  _293
REMARK  119  A    between atoms: _298  and  _300
REMARK  120  A    between atoms: _300  and  _301
REMARK  121  A    between atoms: _300  and  _303
REMARK  122  A    between atoms: _303  and  _304
REMARK  123  A    between atoms: _314  and  _316
REMARK  124  A    between atoms: _316  and  _317
REMARK  125  A    between atoms: _316  and  _319
REMARK  126  A    between atoms: _322  and  _324
REMARK  127  A    between atoms: _324  and  _325
REMARK  128  A    between atoms: _328  and  _330
REMARK  129  A    between atoms: _330  and  _331
REMARK  130  A    between atoms: _330  and  _333
REMARK  131  A    between atoms: _333  and  _334
REMARK  132  A    between atoms: _334  and  _335
REMARK  133  A    between atoms: _338  and  _340
REMARK  134  A    between atoms: _340  and  _341
REMARK  135  A    between atoms: _340  and  _343
REMARK  136  A    between atoms: _343  and  _344
REMARK  137  A    between atoms: _344  and  _345
REMARK  138  A    between atoms: _351  and  _352
REMARK  139  A    between atoms: _357  and  _359
REMARK  140  A    between atoms: _359  and  _360
REMARK  141  A    between atoms: _359  and  _362
REMARK  142  A    between atoms: _362  and  _363
REMARK  143  A    between atoms: _365  and  _367
REMARK  144  A    between atoms: _367  and  _368
REMARK  145  A    between atoms: _367  and  _370
REMARK  146  A    between atoms: _370  and  _371
REMARK  147  A    between atoms: _374  and  _376
REMARK  148  A    between atoms: _376  and  _377
REMARK  149  A    between atoms: _379  and  _381
REMARK  150  A    between atoms: _381  and  _382
REMARK  151  A    between atoms: _381  and  _384
REMARK  152  A    between atoms: _387  and  _389
REMARK  153  A    between atoms: _389  and  _390
REMARK  154  A    between atoms: _392  and  _394
REMARK  155  A    between atoms: _394  and  _395
REMARK  156  A    between atoms: _394  and  _397
REMARK  157  A    between atoms: _397  and  _398
REMARK  158  A    between atoms: _403  and  _404
REMARK  159  A    between atoms: _406  and  _408
REMARK  160  A    between atoms: _408  and  _409
REMARK  161  A    between atoms: _408  and  _411
REMARK  162  A    between atoms: _411  and  _412
REMARK  163  A    between atoms: _412  and  _413
REMARK  164  A    between atoms: _416  and  _418
REMARK  165  A    between atoms: _418  and  _419
REMARK  166  A    between atoms: _418  and  _421
REMARK  167  A    between atoms: _421  and  _422
REMARK  168  A    between atoms: _426  and  _427
REMARK  169  A    between atoms: _432  and  _434
REMARK  170  A    between atoms: _434  and  _435
REMARK  171  A    between atoms: _434  and  _437
REMARK  172  A    between atoms: _437  and  _438
REMARK  173  A    between atoms: _440  and  _442
REMARK  174  A    between atoms: _442  and  _443
REMARK  175  A    between atoms: _442  and  _445
REMARK  176  A    between atoms: _445  and  _446
REMARK  177  A    between atoms: _449  and  _451
REMARK  178  A    between atoms: _451  and  _452
REMARK  179  A    between atoms: _451  and  _454
REMARK  180  A    between atoms: _457  and  _459
REMARK  181  A    between atoms: _459  and  _460
REMARK  182  A    between atoms: _459  and  _462
REMARK  183  A    between atoms: _462  and  _463
REMARK  184  A    between atoms: _466  and  _468
REMARK  185  A    between atoms: _468  and  _469
REMARK  186  A    between atoms: _468  and  _471
REMARK  187  A    between atoms: _471  and  _472
REMARK  188  A    between atoms: _474  and  _476
REMARK  189  A    between atoms: _476  and  _477
REMARK  190  A    between atoms: _480  and  _482
REMARK  191  A    between atoms: _482  and  _483
REMARK  192  A    between atoms: _482  and  _485
REMARK  193  A    between atoms: _485  and  _486
REMARK  194  A    between atoms: _486  and  _487
REMARK  195  A    between atoms: _489  and  _491
REMARK  196  A    between atoms: _491  and  _492
REMARK  197  A    between atoms: _491  and  _494
REMARK  198  A    between atoms: _494  and  _495
REMARK  199  A    between atoms: _498  and  _500
REMARK  200  A    between atoms: _500  and  _501
REMARK  201  A    between atoms: _500  and  _503
REMARK  202  A    between atoms: _503  and  _504
REMARK  203  A    between atoms: _504  and  _505
REMARK  204  A    between atoms: _505  and  _506
REMARK                            x       y       z     vdW  Elec       q    Type
REMARK                         _______ _______ _______ _____ _____    ______ ____
ROOT
ATOM      1  O   HOH     1       0.999  83.705  -4.925  0.00  0.00    +0.000 OA
ENDROOT
TORSDOF 0
REMARK  Name = ../refined-set-2016/4p5d/4p5d_pocket.pdb
REMARK  204 active torsions:
REMARK  status: ('A' for Active; 'I' for Inactive)
REMARK    1  A    between atoms: _1  and  _3
REMARK    2  A    between atoms: _3  and  _4
REMARK    3  A    between atoms: _3  and  _6
REMARK    4  A    between atoms: _6  and  _7
REMARK    5  A    between atoms: _12  and  _13
REMARK    6  A    between atoms: _15  and  _17
REMARK    7  A    between atoms: _17  and  _18
REMARK    8  A    between atoms: _17  and  _20
REMARK    9  A    between atoms: _20  and  _21
REMARK   10  A    between atoms: _27  and  _29
REMARK   11  A    between atoms: _29  and  _30
REMARK   12  A    between atoms: _29  and  _32
REMARK   13  A    between atoms: _34  and  _36
REMARK   14  A    between atoms: _36  and  _37
REMARK   15  A    between atoms: _39  and  _41
REMARK   16  A    between atoms: _41  and  _42
REMARK   17  A    between atoms: _41  and  _44
REMARK   18  A    between atoms: _44  and  _45
REMARK   19  A    between atoms: _47  and  _49
REMARK   20  A    between atoms: _49  and  _50
REMARK   21  A    between atoms: _49  and  _52
REMARK   22  A    between atoms: _52  and  _53
REMARK   23  A    between atoms: _56  and  _58
REMARK   24  A    between atoms: _58  and  _59
REMARK   25  A    between atoms: _58  and  _61
REMARK   26  A    between atoms: _61  and  _62
REMARK   27  A    between atoms: _62  and  _63
REMARK   28  A    between atoms: _63  and  _64
REMARK   29  A    between atoms: _73  and  _75
REMARK   30  A    between atoms: _75  and  _76
REMARK   31  A    between atoms: _78  and  _80
REMARK   32  A    between atoms: _80  and  _81
REMARK   33  A    between atoms: _83  and  _85
REMARK   34  A    between atoms: _85  and  _86
REMARK   35  A    between atoms: _85  and  _88
REMARK   36  A    between atoms: _88  and  _89
REMARK   37  A    between atoms: _89  and  _90
REMARK   38  A    between atoms: _90  and  _91
REMARK   39  A    between atoms: _100  and  _102
REMARK   40  A    between atoms: _102  and  _103
REMARK   41  A    between atoms: _102  and  _105
REMARK   42  A    between atoms: _105  and  _106
REMARK   43  A    between atoms: _111  and  _112
REMARK   44  A    between atoms: _114  and  _116
REMARK   45  A    between atoms: _116  and  _117
REMARK   46  A    between atoms: _116  and  _119
REMARK   47  A    between atoms: _119  and  _120
REMARK   48  A    between atoms: _123  and  _125
REMARK   49  A    between atoms: _125  and  _126
REMARK   50  A    between atoms: _125  and  _128
REMARK   51  A    between atoms: _128  and  _129
REMARK   52  A    between atoms: _129  and  _130
REMARK   53  A    between atoms: _133  and  _135
REMARK   54  A    between atoms: _135  and  _136
REMARK   55  A    between atoms: _135  and  _138
REMARK   56  A    between atoms: _138  and  _139
REMARK   57  A    between atoms: _144  and  _146
REMARK   58  A    between atoms: _146  and  _147
REMARK   59  A    between atoms: _146  and  _149
REMARK   60  A    between atoms: _152  and  _154
REMARK   61  A    between atoms: _154  and  _155
REMARK   62  A    between atoms: _154  and  _157
REMARK   63  A    between atoms: _157  and  _158
REMARK   64  A    between atoms: _161  and  _163
REMARK   65  A    between atoms: _163  and  _164
REMARK   66  A    between atoms: _163  and  _166
REMARK   67  A    between atoms: _166  and  _167
REMARK   68  A    between atoms: _167  and  _168
REMARK   69  A    between atoms: _172  and  _173
REMARK   70  A    between atoms: _178  and  _180
REMARK   71  A    between atoms: _180  and  _181
REMARK   72  A    between atoms: _180  and  _183
REMARK   73  A    between atoms: _183  and  _184
REMARK   74  A    between atoms: _187  and  _189
REMARK   75  A    between atoms: _189  and  _190
REMARK   76  A    between atoms: _192  and  _194
REMARK   77  A    between atoms: _194  and  _195
REMARK   78  A    between atoms: _194  and  _197
REMARK   79  A    between atoms: _197  and  _198
REMARK   80  A    between atoms: _198  and  _199
REMARK   81  A    between atoms: _202  and  _204
REMARK   82  A    between atoms: _204  and  _205
REMARK   83  A    between atoms: _204  and  _207
REMARK   84  A    between atoms: _207  and  _208
REMARK   85  A    between atoms: _208  and  _209
REMARK   86  A    between atoms: _212  and  _214
REMARK   87  A    between atoms: _214  and  _215
REMARK   88  A    between atoms: _218  and  _220
REMARK   89  A    between atoms: _220  and  _221
REMARK   90  A    between atoms: _224  and  _226
REMARK   91  A    between atoms: _226  and  _227
REMARK   92  A    between atoms: _229  and  _231
REMARK   93  A    between atoms: _231  and  _232
REMARK   94  A    between atoms: _234  and  _236
REMARK   95  A    between atoms: _236  and  _237
REMARK   96  A    between atoms: _236  and  _239
REMARK   97  A    between atoms: _239  and  _240
REMARK   98  A    between atoms: _243  and  _245
REMARK   99  A    between atoms: _245  and  _246
REMARK  100  A    between atoms: _245  and  _248
REMARK  101  A    between atoms: _248  and  _249
REMARK  102  A    between atoms: _255  and  _257
REMARK  103  A    between atoms: _257  and  _258
REMARK  104  A    between atoms: _257  and  _260
REMARK  105  A    between atoms: _260  and  _261
REMARK  106  A    between atoms: _264  and  _266
REMARK  107  A    between atoms: _266  and  _267
REMARK  108  A    between atoms: _266  and  _269
REMARK  109  A    between atoms: _269  and  _270
REMARK  110  A    between atoms: _275  and  _277
REMARK  111  A    between atoms: _277  and  _278
REMARK  112  A    between atoms: _277  and  _280
REMARK  113  A    between atoms: _280  and  _281
REMARK  114  A    between atoms: _281  and  _282
REMARK  115  A    between atoms: _287  and  _289
REMARK  116  A    between atoms: _289  and  _290
REMARK  117  A    between atoms: _289  and  _292
REMARK  118  A    between atoms: _292  and  _293
REMARK  119  A    between atoms: _298  and  _300
REMARK  120  A    between atoms: _300  and  _301
REMARK  121  A    between atoms: _300  and  _303
REMARK  122  A    between atoms: _303  and  _304
REMARK  123  A    between atoms: _314  and  _316
REMARK  124  A    between atoms: _316  and  _317
REMARK  125  A    between atoms: _316  and  _319
REMARK  126  A    between atoms: _322  and  _324
REMARK  127  A    between atoms: _324  and  _325
REMARK  128  A    between atoms: _328  and  _330
REMARK  129  A    between atoms: _330  and  _331
REMARK  130  A    between atoms: _330  and  _333
REMARK  131  A    between atoms: _333  and  _334
REMARK  132  A    between atoms: _334  and  _335
REMARK  133  A    between atoms: _338  and  _340
REMARK  134  A    between atoms: _340  and  _341
REMARK  135  A    between atoms: _340  and  _343
REMARK  136  A    between atoms: _343  and  _344
REMARK  137  A    between atoms: _344  and  _345
REMARK  138  A    between atoms: _351  and  _352
REMARK  139  A    between atoms: _357  and  _359
REMARK  140  A    between atoms: _359  and  _360
REMARK  141  A    between atoms: _359  and  _362
REMARK  142  A    between atoms: _362  and  _363
REMARK  143  A    between atoms: _365  and  _367
REMARK  144  A    between atoms: _367  and  _368
REMARK  145  A    between atoms: _367  and  _370
REMARK  146  A    between atoms: _370  and  _371
REMARK  147  A    between atoms: _374  and  _376
REMARK  148  A    between atoms: _376  and  _377
REMARK  149  A    between atoms: _379  and  _381
REMARK  150  A    between atoms: _381  and  _382
REMARK  151  A    between atoms: _381  and  _384
REMARK  152  A    between atoms: _387  and  _389
REMARK  153  A    between atoms: _389  and  _390
REMARK  154  A    between atoms: _392  and  _394
REMARK  155  A    between atoms: _394  and  _395
REMARK  156  A    between atoms: _394  and  _397
REMARK  157  A    between atoms: _397  and  _398
REMARK  158  A    between atoms: _403  and  _404
REMARK  159  A    between atoms: _406  and  _408
REMARK  160  A    between atoms: _408  and  _409
REMARK  161  A    between atoms: _408  and  _411
REMARK  162  A    between atoms: _411  and  _412
REMARK  163  A    between atoms: _412  and  _413
REMARK  164  A    between atoms: _416  and  _418
REMARK  165  A    between atoms: _418  and  _419
REMARK  166  A    between atoms: _418  and  _421
REMARK  167  A    between atoms: _421  and  _422
REMARK  168  A    between atoms: _426  and  _427
REMARK  169  A    between atoms: _432  and  _434
REMARK  170  A    between atoms: _434  and  _435
REMARK  171  A    between atoms: _434  and  _437
REMARK  172  A    between atoms: _437  and  _438
REMARK  173  A    between atoms: _440  and  _442
REMARK  174  A    between atoms: _442  and  _443
REMARK  175  A    between atoms: _442  and  _445
REMARK  176  A    between atoms: _445  and  _446
REMARK  177  A    between atoms: _449  and  _451
REMARK  178  A    between atoms: _451  and  _452
REMARK  179  A    between atoms: _451  and  _454
REMARK  180  A    between atoms: _457  and  _459
REMARK  181  A    between atoms: _459  and  _460
REMARK  182  A    between atoms: _459  and  _462
REMARK  183  A    between atoms: _462  and  _463
REMARK  184  A    between atoms: _466  and  _468
REMARK  185  A    between atoms: _468  and  _469
REMARK  186  A    between atoms: _468  and  _471
REMARK  187  A    between atoms: _471  and  _472
REMARK  188  A    between atoms: _474  and  _476
REMARK  189  A    between atoms: _476  and  _477
REMARK  190  A    between atoms: _480  and  _482
REMARK  191  A    between atoms: _482  and  _483
REMARK  192  A    between atoms: _482  and  _485
REMARK  193  A    between atoms: _485  and  _486
REMARK  194  A    between atoms: _486  and  _487
REMARK  195  A    between atoms: _489  and  _491
REMARK  196  A    between atoms: _491  and  _492
REMARK  197  A    between atoms: _491  and  _494
REMARK  198  A    between atoms: _494  and  _495
REMARK  199  A    between atoms: _498  and  _500
REMARK  200  A    between atoms: _500  and  _501
REMARK  201  A    between atoms: _500  and  _503
REMARK  202  A    between atoms: _503  and  _504
REMARK  203  A    between atoms: _504  and  _505
REMARK  204  A    between atoms: _505  and  _506
REMARK                            x       y       z     vdW  Elec       q    Type
REMARK                         _______ _______ _______ _____ _____    ______ ____
ROOT
ATOM      1  O   HOH     1      11.942  70.579  -3.604  0.00  0.00    +0.000 OA
ENDROOT
TORSDOF 0
REMARK  Name = ../refined-set-2016/4p5d/4p5d_pocket.pdb
REMARK  204 active torsions:
REMARK  status: ('A' for Active; 'I' for Inactive)
REMARK    1  A    between atoms: _1  and  _3
REMARK    2  A    between atoms: _3  and  _4
REMARK    3  A    between atoms: _3  and  _6
REMARK    4  A    between atoms: _6  and  _7
REMARK    5  A    between atoms: _12  and  _13
REMARK    6  A    between atoms: _15  and  _17
REMARK    7  A    between atoms: _17  and  _18
REMARK    8  A    between atoms: _17  and  _20
REMARK    9  A    between atoms: _20  and  _21
REMARK   10  A    between atoms: _27  and  _29
REMARK   11  A    between atoms: _29  and  _30
REMARK   12  A    between atoms: _29  and  _32
REMARK   13  A    between atoms: _34  and  _36
REMARK   14  A    between atoms: _36  and  _37
REMARK   15  A    between atoms: _39  and  _41
REMARK   16  A    between atoms: _41  and  _42
REMARK   17  A    between atoms: _41  and  _44
REMARK   18  A    between atoms: _44  and  _45
REMARK   19  A    between atoms: _47  and  _49
REMARK   20  A    between atoms: _49  and  _50
REMARK   21  A    between atoms: _49  and  _52
REMARK   22  A    between atoms: _52  and  _53
REMARK   23  A    between atoms: _56  and  _58
REMARK   24  A    between atoms: _58  and  _59
REMARK   25  A    between atoms: _58  and  _61
REMARK   26  A    between atoms: _61  and  _62
REMARK   27  A    between atoms: _62  and  _63
REMARK   28  A    between atoms: _63  and  _64
REMARK   29  A    between atoms: _73  and  _75
REMARK   30  A    between atoms: _75  and  _76
REMARK   31  A    between atoms: _78  and  _80
REMARK   32  A    between atoms: _80  and  _81
REMARK   33  A    between atoms: _83  and  _85
REMARK   34  A    between atoms: _85  and  _86
REMARK   35  A    between atoms: _85  and  _88
REMARK   36  A    between atoms: _88  and  _89
REMARK   37  A    between atoms: _89  and  _90
REMARK   38  A    between atoms: _90  and  _91
REMARK   39  A    between atoms: _100  and  _102
REMARK   40  A    between atoms: _102  and  _103
REMARK   41  A    between atoms: _102  and  _105
REMARK   42  A    between atoms: _105  and  _106
REMARK   43  A    between atoms: _111  and  _112
REMARK   44  A    between atoms: _114  and  _116
REMARK   45  A    between atoms: _116  and  _117
REMARK   46  A    between atoms: _116  and  _119
REMARK   47  A    between atoms: _119  and  _120
REMARK   48  A    between atoms: _123  and  _125
REMARK   49  A    between atoms: _125  and  _126
REMARK   50  A    between atoms: _125  and  _128
REMARK   51  A    between atoms: _128  and  _129
REMARK   52  A    between atoms: _129  and  _130
REMARK   53  A    between atoms: _133  and  _135
REMARK   54  A    between atoms: _135  and  _136
REMARK   55  A    between atoms: _135  and  _138
REMARK   56  A    between atoms: _138  and  _139
REMARK   57  A    between atoms: _144  and  _146
REMARK   58  A    between atoms: _146  and  _147
REMARK   59  A    between atoms: _146  and  _149
REMARK   60  A    between atoms: _152  and  _154
REMARK   61  A    between atoms: _154  and  _155
REMARK   62  A    between atoms: _154  and  _157
REMARK   63  A    between atoms: _157  and  _158
REMARK   64  A    between atoms: _161  and  _163
REMARK   65  A    between atoms: _163  and  _164
REMARK   66  A    between atoms: _163  and  _166
REMARK   67  A    between atoms: _166  and  _167
REMARK   68  A    between atoms: _167  and  _168
REMARK   69  A    between atoms: _172  and  _173
REMARK   70  A    between atoms: _178  and  _180
REMARK   71  A    between atoms: _180  and  _181
REMARK   72  A    between atoms: _180  and  _183
REMARK   73  A    between atoms: _183  and  _184
REMARK   74  A    between atoms: _187  and  _189
REMARK   75  A    between atoms: _189  and  _190
REMARK   76  A    between atoms: _192  and  _194
REMARK   77  A    between atoms: _194  and  _195
REMARK   78  A    between atoms: _194  and  _197
REMARK   79  A    between atoms: _197  and  _198
REMARK   80  A    between atoms: _198  and  _199
REMARK   81  A    between atoms: _202  and  _204
REMARK   82  A    between atoms: _204  and  _205
REMARK   83  A    between atoms: _204  and  _207
REMARK   84  A    between atoms: _207  and  _208
REMARK   85  A    between atoms: _208  and  _209
REMARK   86  A    between atoms: _212  and  _214
REMARK   87  A    between atoms: _214  and  _215
REMARK   88  A    between atoms: _218  and  _220
REMARK   89  A    between atoms: _220  and  _221
REMARK   90  A    between atoms: _224  and  _226
REMARK   91  A    between atoms: _226  and  _227
REMARK   92  A    between atoms: _229  and  _231
REMARK   93  A    between atoms: _231  and  _232
REMARK   94  A    between atoms: _234  and  _236
REMARK   95  A    between atoms: _236  and  _237
REMARK   96  A    between atoms: _236  and  _239
REMARK   97  A    between atoms: _239  and  _240
REMARK   98  A    between atoms: _243  and  _245
REMARK   99  A    between atoms: _245  and  _246
REMARK  100  A    between atoms: _245  and  _248
REMARK  101  A    between atoms: _248  and  _249
REMARK  102  A    between atoms: _255  and  _257
REMARK  103  A    between atoms: _257  and  _258
REMARK  104  A    between atoms: _257  and  _260
REMARK  105  A    between atoms: _260  and  _261
REMARK  106  A    between atoms: _264  and  _266
REMARK  107  A    between atoms: _266  and  _267
REMARK  108  A    between atoms: _266  and  _269
REMARK  109  A    between atoms: _269  and  _270
REMARK  110  A    between atoms: _275  and  _277
REMARK  111  A    between atoms: _277  and  _278
REMARK  112  A    between atoms: _277  and  _280
REMARK  113  A    between atoms: _280  and  _281
REMARK  114  A    between atoms: _281  and  _282
REMARK  115  A    between atoms: _287  and  _289
REMARK  116  A    between atoms: _289  and  _290
REMARK  117  A    between atoms: _289  and  _292
REMARK  118  A    between atoms: _292  and  _293
REMARK  119  A    between atoms: _298  and  _300
REMARK  120  A    between atoms: _300  and  _301
REMARK  121  A    between atoms: _300  and  _303
REMARK  122  A    between atoms: _303  and  _304
REMARK  123  A    between atoms: _314  and  _316
REMARK  124  A    between atoms: _316  and  _317
REMARK  125  A    between atoms: _316  and  _319
REMARK  126  A    between atoms: _322  and  _324
REMARK  127  A    between atoms: _324  and  _325
REMARK  128  A    between atoms: _328  and  _330
REMARK  129  A    between atoms: _330  and  _331
REMARK  130  A    between atoms: _330  and  _333
REMARK  131  A    between atoms: _333  and  _334
REMARK  132  A    between atoms: _334  and  _335
REMARK  133  A    between atoms: _338  and  _340
REMARK  134  A    between atoms: _340  and  _341
REMARK  135  A    between atoms: _340  and  _343
REMARK  136  A    between atoms: _343  and  _344
REMARK  137  A    between atoms: _344  and  _345
REMARK  138  A    between atoms: _351  and  _352
REMARK  139  A    between atoms: _357  and  _359
REMARK  140  A    between atoms: _359  and  _360
REMARK  141  A    between atoms: _359  and  _362
REMARK  142  A    between atoms: _362  and  _363
REMARK  143  A    between atoms: _365  and  _367
REMARK  144  A    between atoms: _367  and  _368
REMARK  145  A    between atoms: _367  and  _370
REMARK  146  A    between atoms: _370  and  _371
REMARK  147  A    between atoms: _374  and  _376
REMARK  148  A    between atoms: _376  and  _377
REMARK  149  A    between atoms: _379  and  _381
REMARK  150  A    between atoms: _381  and  _382
REMARK  151  A    between atoms: _381  and  _384
REMARK  152  A    between atoms: _387  and  _389
REMARK  153  A    between atoms: _389  and  _390
REMARK  154  A    between atoms: _392  and  _394
REMARK  155  A    between atoms: _394  and  _395
REMARK  156  A    between atoms: _394  and  _397
REMARK  157  A    between atoms: _397  and  _398
REMARK  158  A    between atoms: _403  and  _404
REMARK  159  A    between atoms: _406  and  _408
REMARK  160  A    between atoms: _408  and  _409
REMARK  161  A    between atoms: _408  and  _411
REMARK  162  A    between atoms: _411  and  _412
REMARK  163  A    between atoms: _412  and  _413
REMARK  164  A    between atoms: _416  and  _418
REMARK  165  A    between atoms: _418  and  _419
REMARK  166  A    between atoms: _418  and  _421
REMARK  167  A    between atoms: _421  and  _422
REMARK  168  A    between atoms: _426  and  _427
REMARK  169  A    between atoms: _432  and  _434
REMARK  170  A    between atoms: _434  and  _435
REMARK  171  A    between atoms: _434  and  _437
REMARK  172  A    between atoms: _437  and  _438
REMARK  173  A    between atoms: _440  and  _442
REMARK  174  A    between atoms: _442  and  _443
REMARK  175  A    between atoms: _442  and  _445
REMARK  176  A    between atoms: _445  and  _446
REMARK  177  A    between atoms: _449  and  _451
REMARK  178  A    between atoms: _451  and  _452
REMARK  179  A    between atoms: _451  and  _454
REMARK  180  A    between atoms: _457  and  _459
REMARK  181  A    between atoms: _459  and  _460
REMARK  182  A    between atoms: _459  and  _462
REMARK  183  A    between atoms: _462  and  _463
REMARK  184  A    between atoms: _466  and  _468
REMARK  185  A    between atoms: _468  and  _469
REMARK  186  A    between atoms: _468  and  _471
REMARK  187  A    between atoms: _471  and  _472
REMARK  188  A    between atoms: _474  and  _476
REMARK  189  A    between atoms: _476  and  _477
REMARK  190  A    between atoms: _480  and  _482
REMARK  191  A    between atoms: _482  and  _483
REMARK  192  A    between atoms: _482  and  _485
REMARK  193  A    between atoms: _485  and  _486
REMARK  194  A    between atoms: _486  and  _487
REMARK  195  A    between atoms: _489  and  _491
REMARK  196  A    between atoms: _491  and  _492
REMARK  197  A    between atoms: _491  and  _494
REMARK  198  A    between atoms: _494  and  _495
REMARK  199  A    between atoms: _498  and  _500
REMARK  200  A    between atoms: _500  and  _501
REMARK  201  A    between atoms: _500  and  _503
REMARK  202  A    between atoms: _503  and  _504
REMARK  203  A    between atoms: _504  and  _505
REMARK  204  A    between atoms: _505  and  _506
REMARK                            x       y       z     vdW  Elec       q    Type
REMARK                         _______ _______ _______ _____ _____    ______ ____
ROOT
ATOM      1  O   HOH     1       7.842  71.970  -2.596  0.00  0.00    +0.000 OA
ENDROOT
TORSDOF 0
REMARK  Name = ../refined-set-2016/4p5d/4p5d_pocket.pdb
REMARK  204 active torsions:
REMARK  status: ('A' for Active; 'I' for Inactive)
REMARK    1  A    between atoms: _1  and  _3
REMARK    2  A    between atoms: _3  and  _4
REMARK    3  A    between atoms: _3  and  _6
REMARK    4  A    between atoms: _6  and  _7
REMARK    5  A    between atoms: _12  and  _13
REMARK    6  A    between atoms: _15  and  _17
REMARK    7  A    between atoms: _17  and  _18
REMARK    8  A    between atoms: _17  and  _20
REMARK    9  A    between atoms: _20  and  _21
REMARK   10  A    between atoms: _27  and  _29
REMARK   11  A    between atoms: _29  and  _30
REMARK   12  A    between atoms: _29  and  _32
REMARK   13  A    between atoms: _34  and  _36
REMARK   14  A    between atoms: _36  and  _37
REMARK   15  A    between atoms: _39  and  _41
REMARK   16  A    between atoms: _41  and  _42
REMARK   17  A    between atoms: _41  and  _44
REMARK   18  A    between atoms: _44  and  _45
REMARK   19  A    between atoms: _47  and  _49
REMARK   20  A    between atoms: _49  and  _50
REMARK   21  A    between atoms: _49  and  _52
REMARK   22  A    between atoms: _52  and  _53
REMARK   23  A    between atoms: _56  and  _58
REMARK   24  A    between atoms: _58  and  _59
REMARK   25  A    between atoms: _58  and  _61
REMARK   26  A    between atoms: _61  and  _62
REMARK   27  A    between atoms: _62  and  _63
REMARK   28  A    between atoms: _63  and  _64
REMARK   29  A    between atoms: _73  and  _75
REMARK   30  A    between atoms: _75  and  _76
REMARK   31  A    between atoms: _78  and  _80
REMARK   32  A    between atoms: _80  and  _81
REMARK   33  A    between atoms: _83  and  _85
REMARK   34  A    between atoms: _85  and  _86
REMARK   35  A    between atoms: _85  and  _88
REMARK   36  A    between atoms: _88  and  _89
REMARK   37  A    between atoms: _89  and  _90
REMARK   38  A    between atoms: _90  and  _91
REMARK   39  A    between atoms: _100  and  _102
REMARK   40  A    between atoms: _102  and  _103
REMARK   41  A    between atoms: _102  and  _105
REMARK   42  A    between atoms: _105  and  _106
REMARK   43  A    between atoms: _111  and  _112
REMARK   44  A    between atoms: _114  and  _116
REMARK   45  A    between atoms: _116  and  _117
REMARK   46  A    between atoms: _116  and  _119
REMARK   47  A    between atoms: _119  and  _120
REMARK   48  A    between atoms: _123  and  _125
REMARK   49  A    between atoms: _125  and  _126
REMARK   50  A    between atoms: _125  and  _128
REMARK   51  A    between atoms: _128  and  _129
REMARK   52  A    between atoms: _129  and  _130
REMARK   53  A    between atoms: _133  and  _135
REMARK   54  A    between atoms: _135  and  _136
REMARK   55  A    between atoms: _135  and  _138
REMARK   56  A    between atoms: _138  and  _139
REMARK   57  A    between atoms: _144  and  _146
REMARK   58  A    between atoms: _146  and  _147
REMARK   59  A    between atoms: _146  and  _149
REMARK   60  A    between atoms: _152  and  _154
REMARK   61  A    between atoms: _154  and  _155
REMARK   62  A    between atoms: _154  and  _157
REMARK   63  A    between atoms: _157  and  _158
REMARK   64  A    between atoms: _161  and  _163
REMARK   65  A    between atoms: _163  and  _164
REMARK   66  A    between atoms: _163  and  _166
REMARK   67  A    between atoms: _166  and  _167
REMARK   68  A    between atoms: _167  and  _168
REMARK   69  A    between atoms: _172  and  _173
REMARK   70  A    between atoms: _178  and  _180
REMARK   71  A    between atoms: _180  and  _181
REMARK   72  A    between atoms: _180  and  _183
REMARK   73  A    between atoms: _183  and  _184
REMARK   74  A    between atoms: _187  and  _189
REMARK   75  A    between atoms: _189  and  _190
REMARK   76  A    between atoms: _192  and  _194
REMARK   77  A    between atoms: _194  and  _195
REMARK   78  A    between atoms: _194  and  _197
REMARK   79  A    between atoms: _197  and  _198
REMARK   80  A    between atoms: _198  and  _199
REMARK   81  A    between atoms: _202  and  _204
REMARK   82  A    between atoms: _204  and  _205
REMARK   83  A    between atoms: _204  and  _207
REMARK   84  A    between atoms: _207  and  _208
REMARK   85  A    between atoms: _208  and  _209
REMARK   86  A    between atoms: _212  and  _214
REMARK   87  A    between atoms: _214  and  _215
REMARK   88  A    between atoms: _218  and  _220
REMARK   89  A    between atoms: _220  and  _221
REMARK   90  A    between atoms: _224  and  _226
REMARK   91  A    between atoms: _226  and  _227
REMARK   92  A    between atoms: _229  and  _231
REMARK   93  A    between atoms: _231  and  _232
REMARK   94  A    between atoms: _234  and  _236
REMARK   95  A    between atoms: _236  and  _237
REMARK   96  A    between atoms: _236  and  _239
REMARK   97  A    between atoms: _239  and  _240
REMARK   98  A    between atoms: _243  and  _245
REMARK   99  A    between atoms: _245  and  _246
REMARK  100  A    between atoms: _245  and  _248
REMARK  101  A    between atoms: _248  and  _249
REMARK  102  A    between atoms: _255  and  _257
REMARK  103  A    between atoms: _257  and  _258
REMARK  104  A    between atoms: _257  and  _260
REMARK  105  A    between atoms: _260  and  _261
REMARK  106  A    between atoms: _264  and  _266
REMARK  107  A    between atoms: _266  and  _267
REMARK  108  A    between atoms: _266  and  _269
REMARK  109  A    between atoms: _269  and  _270
REMARK  110  A    between atoms: _275  and  _277
REMARK  111  A    between atoms: _277  and  _278
REMARK  112  A    between atoms: _277  and  _280
REMARK  113  A    between atoms: _280  and  _281
REMARK  114  A    between atoms: _281  and  _282
REMARK  115  A    between atoms: _287  and  _289
REMARK  116  A    between atoms: _289  and  _290
REMARK  117  A    between atoms: _289  and  _292
REMARK  118  A    between atoms: _292  and  _293
REMARK  119  A    between atoms: _298  and  _300
REMARK  120  A    between atoms: _300  and  _301
REMARK  121  A    between atoms: _300  and  _303
REMARK  122  A    between atoms: _303  and  _304
REMARK  123  A    between atoms: _314  and  _316
REMARK  124  A    between atoms: _316  and  _317
REMARK  125  A    between atoms: _316  and  _319
REMARK  126  A    between atoms: _322  and  _324
REMARK  127  A    between atoms: _324  and  _325
REMARK  128  A    between atoms: _328  and  _330
REMARK  129  A    between atoms: _330  and  _331
REMARK  130  A    between atoms: _330  and  _333
REMARK  131  A    between atoms: _333  and  _334
REMARK  132  A    between atoms: _334  and  _335
REMARK  133  A    between atoms: _338  and  _340
REMARK  134  A    between atoms: _340  and  _341
REMARK  135  A    between atoms: _340  and  _343
REMARK  136  A    between atoms: _343  and  _344
REMARK  137  A    between atoms: _344  and  _345
REMARK  138  A    between atoms: _351  and  _352
REMARK  139  A    between atoms: _357  and  _359
REMARK  140  A    between atoms: _359  and  _360
REMARK  141  A    between atoms: _359  and  _362
REMARK  142  A    between atoms: _362  and  _363
REMARK  143  A    between atoms: _365  and  _367
REMARK  144  A    between atoms: _367  and  _368
REMARK  145  A    between atoms: _367  and  _370
REMARK  146  A    between atoms: _370  and  _371
REMARK  147  A    between atoms: _374  and  _376
REMARK  148  A    between atoms: _376  and  _377
REMARK  149  A    between atoms: _379  and  _381
REMARK  150  A    between atoms: _381  and  _382
REMARK  151  A    between atoms: _381  and  _384
REMARK  152  A    between atoms: _387  and  _389
REMARK  153  A    between atoms: _389  and  _390
REMARK  154  A    between atoms: _392  and  _394
REMARK  155  A    between atoms: _394  and  _395
REMARK  156  A    between atoms: _394  and  _397
REMARK  157  A    between atoms: _397  and  _398
REMARK  158  A    between atoms: _403  and  _404
REMARK  159  A    between atoms: _406  and  _408
REMARK  160  A    between atoms: _408  and  _409
REMARK  161  A    between atoms: _408  and  _411
REMARK  162  A    between atoms: _411  and  _412
REMARK  163  A    between atoms: _412  and  _413
REMARK  164  A    between atoms: _416  and  _418
REMARK  165  A    between atoms: _418  and  _419
REMARK  166  A    between atoms: _418  and  _421
REMARK  167  A    between atoms: _421  and  _422
REMARK  168  A    between atoms: _426  and  _427
REMARK  169  A    between atoms: _432  and  _434
REMARK  170  A    between atoms: _434  and  _435
REMARK  171  A    between atoms: _434  and  _437
REMARK  172  A    between atoms: _437  and  _438
REMARK  173  A    between atoms: _440  and  _442
REMARK  174  A    between atoms: _442  and  _443
REMARK  175  A    between atoms: _442  and  _445
REMARK  176  A    between atoms: _445  and  _446
REMARK  177  A    between atoms: _449  and  _451
REMARK  178  A    between atoms: _451  and  _452
REMARK  179  A    between atoms: _451  and  _454
REMARK  180  A    between atoms: _457  and  _459
REMARK  181  A    between atoms: _459  and  _460
REMARK  182  A    between atoms: _459  and  _462
REMARK  183  A    between atoms: _462  and  _463
REMARK  184  A    between atoms: _466  and  _468
REMARK  185  A    between atoms: _468  and  _469
REMARK  186  A    between atoms: _468  and  _471
REMARK  187  A    between atoms: _471  and  _472
REMARK  188  A    between atoms: _474  and  _476
REMARK  189  A    between atoms: _476  and  _477
REMARK  190  A    between atoms: _480  and  _482
REMARK  191  A    between atoms: _482  and  _483
REMARK  192  A    between atoms: _482  and  _485
REMARK  193  A    between atoms: _485  and  _486
REMARK  194  A    between atoms: _486  and  _487
REMARK  195  A    between atoms: _489  and  _491
REMARK  196  A    between atoms: _491  and  _492
REMARK  197  A    between atoms: _491  and  _494
REMARK  198  A    between atoms: _494  and  _495
REMARK  199  A    between atoms: _498  and  _500
REMARK  200  A    between atoms: _500  and  _501
REMARK  201  A    between atoms: _500  and  _503
REMARK  202  A    between atoms: _503  and  _504
REMARK  203  A    between atoms: _504  and  _505
REMARK  204  A    between atoms: _505  and  _506
REMARK                            x       y       z     vdW  Elec       q    Type
REMARK                         _______ _______ _______ _____ _____    ______ ____
ROOT
ATOM      1  O   HOH     1       8.014  84.954  -8.592  0.00  0.00    +0.000 OA
ENDROOT
TORSDOF 0
REMARK  Name = ../refined-set-2016/4p5d/4p5d_pocket.pdb
REMARK  204 active torsions:
REMARK  status: ('A' for Active; 'I' for Inactive)
REMARK    1  A    between atoms: _1  and  _3
REMARK    2  A    between atoms: _3  and  _4
REMARK    3  A    between atoms: _3  and  _6
REMARK    4  A    between atoms: _6  and  _7
REMARK    5  A    between atoms: _12  and  _13
REMARK    6  A    between atoms: _15  and  _17
REMARK    7  A    between atoms: _17  and  _18
REMARK    8  A    between atoms: _17  and  _20
REMARK    9  A    between atoms: _20  and  _21
REMARK   10  A    between atoms: _27  and  _29
REMARK   11  A    between atoms: _29  and  _30
REMARK   12  A    between atoms: _29  and  _32
REMARK   13  A    between atoms: _34  and  _36
REMARK   14  A    between atoms: _36  and  _37
REMARK   15  A    between atoms: _39  and  _41
REMARK   16  A    between atoms: _41  and  _42
REMARK   17  A    between atoms: _41  and  _44
REMARK   18  A    between atoms: _44  and  _45
REMARK   19  A    between atoms: _47  and  _49
REMARK   20  A    between atoms: _49  and  _50
REMARK   21  A    between atoms: _49  and  _52
REMARK   22  A    between atoms: _52  and  _53
REMARK   23  A    between atoms: _56  and  _58
REMARK   24  A    between atoms: _58  and  _59
REMARK   25  A    between atoms: _58  and  _61
REMARK   26  A    between atoms: _61  and  _62
REMARK   27  A    between atoms: _62  and  _63
REMARK   28  A    between atoms: _63  and  _64
REMARK   29  A    between atoms: _73  and  _75
REMARK   30  A    between atoms: _75  and  _76
REMARK   31  A    between atoms: _78  and  _80
REMARK   32  A    between atoms: _80  and  _81
REMARK   33  A    between atoms: _83  and  _85
REMARK   34  A    between atoms: _85  and  _86
REMARK   35  A    between atoms: _85  and  _88
REMARK   36  A    between atoms: _88  and  _89
REMARK   37  A    between atoms: _89  and  _90
REMARK   38  A    between atoms: _90  and  _91
REMARK   39  A    between atoms: _100  and  _102
REMARK   40  A    between atoms: _102  and  _103
REMARK   41  A    between atoms: _102  and  _105
REMARK   42  A    between atoms: _105  and  _106
REMARK   43  A    between atoms: _111  and  _112
REMARK   44  A    between atoms: _114  and  _116
REMARK   45  A    between atoms: _116  and  _117
REMARK   46  A    between atoms: _116  and  _119
REMARK   47  A    between atoms: _119  and  _120
REMARK   48  A    between atoms: _123  and  _125
REMARK   49  A    between atoms: _125  and  _126
REMARK   50  A    between atoms: _125  and  _128
REMARK   51  A    between atoms: _128  and  _129
REMARK   52  A    between atoms: _129  and  _130
REMARK   53  A    between atoms: _133  and  _135
REMARK   54  A    between atoms: _135  and  _136
REMARK   55  A    between atoms: _135  and  _138
REMARK   56  A    between atoms: _138  and  _139
REMARK   57  A    between atoms: _144  and  _146
REMARK   58  A    between atoms: _146  and  _147
REMARK   59  A    between atoms: _146  and  _149
REMARK   60  A    between atoms: _152  and  _154
REMARK   61  A    between atoms: _154  and  _155
REMARK   62  A    between atoms: _154  and  _157
REMARK   63  A    between atoms: _157  and  _158
REMARK   64  A    between atoms: _161  and  _163
REMARK   65  A    between atoms: _163  and  _164
REMARK   66  A    between atoms: _163  and  _166
REMARK   67  A    between atoms: _166  and  _167
REMARK   68  A    between atoms: _167  and  _168
REMARK   69  A    between atoms: _172  and  _173
REMARK   70  A    between atoms: _178  and  _180
REMARK   71  A    between atoms: _180  and  _181
REMARK   72  A    between atoms: _180  and  _183
REMARK   73  A    between atoms: _183  and  _184
REMARK   74  A    between atoms: _187  and  _189
REMARK   75  A    between atoms: _189  and  _190
REMARK   76  A    between atoms: _192  and  _194
REMARK   77  A    between atoms: _194  and  _195
REMARK   78  A    between atoms: _194  and  _197
REMARK   79  A    between atoms: _197  and  _198
REMARK   80  A    between atoms: _198  and  _199
REMARK   81  A    between atoms: _202  and  _204
REMARK   82  A    between atoms: _204  and  _205
REMARK   83  A    between atoms: _204  and  _207
REMARK   84  A    between atoms: _207  and  _208
REMARK   85  A    between atoms: _208  and  _209
REMARK   86  A    between atoms: _212  and  _214
REMARK   87  A    between atoms: _214  and  _215
REMARK   88  A    between atoms: _218  and  _220
REMARK   89  A    between atoms: _220  and  _221
REMARK   90  A    between atoms: _224  and  _226
REMARK   91  A    between atoms: _226  and  _227
REMARK   92  A    between atoms: _229  and  _231
REMARK   93  A    between atoms: _231  and  _232
REMARK   94  A    between atoms: _234  and  _236
REMARK   95  A    between atoms: _236  and  _237
REMARK   96  A    between atoms: _236  and  _239
REMARK   97  A    between atoms: _239  and  _240
REMARK   98  A    between atoms: _243  and  _245
REMARK   99  A    between atoms: _245  and  _246
REMARK  100  A    between atoms: _245  and  _248
REMARK  101  A    between atoms: _248  and  _249
REMARK  102  A    between atoms: _255  and  _257
REMARK  103  A    between atoms: _257  and  _258
REMARK  104  A    between atoms: _257  and  _260
REMARK  105  A    between atoms: _260  and  _261
REMARK  106  A    between atoms: _264  and  _266
REMARK  107  A    between atoms: _266  and  _267
REMARK  108  A    between atoms: _266  and  _269
REMARK  109  A    between atoms: _269  and  _270
REMARK  110  A    between atoms: _275  and  _277
REMARK  111  A    between atoms: _277  and  _278
REMARK  112  A    between atoms: _277  and  _280
REMARK  113  A    between atoms: _280  and  _281
REMARK  114  A    between atoms: _281  and  _282
REMARK  115  A    between atoms: _287  and  _289
REMARK  116  A    between atoms: _289  and  _290
REMARK  117  A    between atoms: _289  and  _292
REMARK  118  A    between atoms: _292  and  _293
REMARK  119  A    between atoms: _298  and  _300
REMARK  120  A    between atoms: _300  and  _301
REMARK  121  A    between atoms: _300  and  _303
REMARK  122  A    between atoms: _303  and  _304
REMARK  123  A    between atoms: _314  and  _316
REMARK  124  A    between atoms: _316  and  _317
REMARK  125  A    between atoms: _316  and  _319
REMARK  126  A    between atoms: _322  and  _324
REMARK  127  A    between atoms: _324  and  _325
REMARK  128  A    between atoms: _328  and  _330
REMARK  129  A    between atoms: _330  and  _331
REMARK  130  A    between atoms: _330  and  _333
REMARK  131  A    between atoms: _333  and  _334
REMARK  132  A    between atoms: _334  and  _335
REMARK  133  A    between atoms: _338  and  _340
REMARK  134  A    between atoms: _340  and  _341
REMARK  135  A    between atoms: _340  and  _343
REMARK  136  A    between atoms: _343  and  _344
REMARK  137  A    between atoms: _344  and  _345
REMARK  138  A    between atoms: _351  and  _352
REMARK  139  A    between atoms: _357  and  _359
REMARK  140  A    between atoms: _359  and  _360
REMARK  141  A    between atoms: _359  and  _362
REMARK  142  A    between atoms: _362  and  _363
REMARK  143  A    between atoms: _365  and  _367
REMARK  144  A    between atoms: _367  and  _368
REMARK  145  A    between atoms: _367  and  _370
REMARK  146  A    between atoms: _370  and  _371
REMARK  147  A    between atoms: _374  and  _376
REMARK  148  A    between atoms: _376  and  _377
REMARK  149  A    between atoms: _379  and  _381
REMARK  150  A    between atoms: _381  and  _382
REMARK  151  A    between atoms: _381  and  _384
REMARK  152  A    between atoms: _387  and  _389
REMARK  153  A    between atoms: _389  and  _390
REMARK  154  A    between atoms: _392  and  _394
REMARK  155  A    between atoms: _394  and  _395
REMARK  156  A    between atoms: _394  and  _397
REMARK  157  A    between atoms: _397  and  _398
REMARK  158  A    between atoms: _403  and  _404
REMARK  159  A    between atoms: _406  and  _408
REMARK  160  A    between atoms: _408  and  _409
REMARK  161  A    between atoms: _408  and  _411
REMARK  162  A    between atoms: _411  and  _412
REMARK  163  A    between atoms: _412  and  _413
REMARK  164  A    between atoms: _416  and  _418
REMARK  165  A    between atoms: _418  and  _419
REMARK  166  A    between atoms: _418  and  _421
REMARK  167  A    between atoms: _421  and  _422
REMARK  168  A    between atoms: _426  and  _427
REMARK  169  A    between atoms: _432  and  _434
REMARK  170  A    between atoms: _434  and  _435
REMARK  171  A    between atoms: _434  and  _437
REMARK  172  A    between atoms: _437  and  _438
REMARK  173  A    between atoms: _440  and  _442
REMARK  174  A    between atoms: _442  and  _443
REMARK  175  A    between atoms: _442  and  _445
REMARK  176  A    between atoms: _445  and  _446
REMARK  177  A    between atoms: _449  and  _451
REMARK  178  A    between atoms: _451  and  _452
REMARK  179  A    between atoms: _451  and  _454
REMARK  180  A    between atoms: _457  and  _459
REMARK  181  A    between atoms: _459  and  _460
REMARK  182  A    between atoms: _459  and  _462
REMARK  183  A    between atoms: _462  and  _463
REMARK  184  A    between atoms: _466  and  _468
REMARK  185  A    between atoms: _468  and  _469
REMARK  186  A    between atoms: _468  and  _471
REMARK  187  A    between atoms: _471  and  _472
REMARK  188  A    between atoms: _474  and  _476
REMARK  189  A    between atoms: _476  and  _477
REMARK  190  A    between atoms: _480  and  _482
REMARK  191  A    between atoms: _482  and  _483
REMARK  192  A    between atoms: _482  and  _485
REMARK  193  A    between atoms: _485  and  _486
REMARK  194  A    between atoms: _486  and  _487
REMARK  195  A    between atoms: _489  and  _491
REMARK  196  A    between atoms: _491  and  _492
REMARK  197  A    between atoms: _491  and  _494
REMARK  198  A    between atoms: _494  and  _495
REMARK  199  A    between atoms: _498  and  _500
REMARK  200  A    between atoms: _500  and  _501
REMARK  201  A    between atoms: _500  and  _503
REMARK  202  A    between atoms: _503  and  _504
REMARK  203  A    between atoms: _504  and  _505
REMARK  204  A    between atoms: _505  and  _506
REMARK                            x       y       z     vdW  Elec       q    Type
REMARK                         _______ _______ _______ _____ _____    ______ ____
ROOT
ATOM      1  O   HOH     1      13.172  74.375  -1.989  0.00  0.00    +0.000 OA
ENDROOT
TORSDOF 0
REMARK  Name = ../refined-set-2016/4p5d/4p5d_pocket.pdb
REMARK  204 active torsions:
REMARK  status: ('A' for Active; 'I' for Inactive)
REMARK    1  A    between atoms: _1  and  _3
REMARK    2  A    between atoms: _3  and  _4
REMARK    3  A    between atoms: _3  and  _6
REMARK    4  A    between atoms: _6  and  _7
REMARK    5  A    between atoms: _12  and  _13
REMARK    6  A    between atoms: _15  and  _17
REMARK    7  A    between atoms: _17  and  _18
REMARK    8  A    between atoms: _17  and  _20
REMARK    9  A    between atoms: _20  and  _21
REMARK   10  A    between atoms: _27  and  _29
REMARK   11  A    between atoms: _29  and  _30
REMARK   12  A    between atoms: _29  and  _32
REMARK   13  A    between atoms: _34  and  _36
REMARK   14  A    between atoms: _36  and  _37
REMARK   15  A    between atoms: _39  and  _41
REMARK   16  A    between atoms: _41  and  _42
REMARK   17  A    between atoms: _41  and  _44
REMARK   18  A    between atoms: _44  and  _45
REMARK   19  A    between atoms: _47  and  _49
REMARK   20  A    between atoms: _49  and  _50
REMARK   21  A    between atoms: _49  and  _52
REMARK   22  A    between atoms: _52  and  _53
REMARK   23  A    between atoms: _56  and  _58
REMARK   24  A    between atoms: _58  and  _59
REMARK   25  A    between atoms: _58  and  _61
REMARK   26  A    between atoms: _61  and  _62
REMARK   27  A    between atoms: _62  and  _63
REMARK   28  A    between atoms: _63  and  _64
REMARK   29  A    between atoms: _73  and  _75
REMARK   30  A    between atoms: _75  and  _76
REMARK   31  A    between atoms: _78  and  _80
REMARK   32  A    between atoms: _80  and  _81
REMARK   33  A    between atoms: _83  and  _85
REMARK   34  A    between atoms: _85  and  _86
REMARK   35  A    between atoms: _85  and  _88
REMARK   36  A    between atoms: _88  and  _89
REMARK   37  A    between atoms: _89  and  _90
REMARK   38  A    between atoms: _90  and  _91
REMARK   39  A    between atoms: _100  and  _102
REMARK   40  A    between atoms: _102  and  _103
REMARK   41  A    between atoms: _102  and  _105
REMARK   42  A    between atoms: _105  and  _106
REMARK   43  A    between atoms: _111  and  _112
REMARK   44  A    between atoms: _114  and  _116
REMARK   45  A    between atoms: _116  and  _117
REMARK   46  A    between atoms: _116  and  _119
REMARK   47  A    between atoms: _119  and  _120
REMARK   48  A    between atoms: _123  and  _125
REMARK   49  A    between atoms: _125  and  _126
REMARK   50  A    between atoms: _125  and  _128
REMARK   51  A    between atoms: _128  and  _129
REMARK   52  A    between atoms: _129  and  _130
REMARK   53  A    between atoms: _133  and  _135
REMARK   54  A    between atoms: _135  and  _136
REMARK   55  A    between atoms: _135  and  _138
REMARK   56  A    between atoms: _138  and  _139
REMARK   57  A    between atoms: _144  and  _146
REMARK   58  A    between atoms: _146  and  _147
REMARK   59  A    between atoms: _146  and  _149
REMARK   60  A    between atoms: _152  and  _154
REMARK   61  A    between atoms: _154  and  _155
REMARK   62  A    between atoms: _154  and  _157
REMARK   63  A    between atoms: _157  and  _158
REMARK   64  A    between atoms: _161  and  _163
REMARK   65  A    between atoms: _163  and  _164
REMARK   66  A    between atoms: _163  and  _166
REMARK   67  A    between atoms: _166  and  _167
REMARK   68  A    between atoms: _167  and  _168
REMARK   69  A    between atoms: _172  and  _173
REMARK   70  A    between atoms: _178  and  _180
REMARK   71  A    between atoms: _180  and  _181
REMARK   72  A    between atoms: _180  and  _183
REMARK   73  A    between atoms: _183  and  _184
REMARK   74  A    between atoms: _187  and  _189
REMARK   75  A    between atoms: _189  and  _190
REMARK   76  A    between atoms: _192  and  _194
REMARK   77  A    between atoms: _194  and  _195
REMARK   78  A    between atoms: _194  and  _197
REMARK   79  A    between atoms: _197  and  _198
REMARK   80  A    between atoms: _198  and  _199
REMARK   81  A    between atoms: _202  and  _204
REMARK   82  A    between atoms: _204  and  _205
REMARK   83  A    between atoms: _204  and  _207
REMARK   84  A    between atoms: _207  and  _208
REMARK   85  A    between atoms: _208  and  _209
REMARK   86  A    between atoms: _212  and  _214
REMARK   87  A    between atoms: _214  and  _215
REMARK   88  A    between atoms: _218  and  _220
REMARK   89  A    between atoms: _220  and  _221
REMARK   90  A    between atoms: _224  and  _226
REMARK   91  A    between atoms: _226  and  _227
REMARK   92  A    between atoms: _229  and  _231
REMARK   93  A    between atoms: _231  and  _232
REMARK   94  A    between atoms: _234  and  _236
REMARK   95  A    between atoms: _236  and  _237
REMARK   96  A    between atoms: _236  and  _239
REMARK   97  A    between atoms: _239  and  _240
REMARK   98  A    between atoms: _243  and  _245
REMARK   99  A    between atoms: _245  and  _246
REMARK  100  A    between atoms: _245  and  _248
REMARK  101  A    between atoms: _248  and  _249
REMARK  102  A    between atoms: _255  and  _257
REMARK  103  A    between atoms: _257  and  _258
REMARK  104  A    between atoms: _257  and  _260
REMARK  105  A    between atoms: _260  and  _261
REMARK  106  A    between atoms: _264  and  _266
REMARK  107  A    between atoms: _266  and  _267
REMARK  108  A    between atoms: _266  and  _269
REMARK  109  A    between atoms: _269  and  _270
REMARK  110  A    between atoms: _275  and  _277
REMARK  111  A    between atoms: _277  and  _278
REMARK  112  A    between atoms: _277  and  _280
REMARK  113  A    between atoms: _280  and  _281
REMARK  114  A    between atoms: _281  and  _282
REMARK  115  A    between atoms: _287  and  _289
REMARK  116  A    between atoms: _289  and  _290
REMARK  117  A    between atoms: _289  and  _292
REMARK  118  A    between atoms: _292  and  _293
REMARK  119  A    between atoms: _298  and  _300
REMARK  120  A    between atoms: _300  and  _301
REMARK  121  A    between atoms: _300  and  _303
REMARK  122  A    between atoms: _303  and  _304
REMARK  123  A    between atoms: _314  and  _316
REMARK  124  A    between atoms: _316  and  _317
REMARK  125  A    between atoms: _316  and  _319
REMARK  126  A    between atoms: _322  and  _324
REMARK  127  A    between atoms: _324  and  _325
REMARK  128  A    between atoms: _328  and  _330
REMARK  129  A    between atoms: _330  and  _331
REMARK  130  A    between atoms: _330  and  _333
REMARK  131  A    between atoms: _333  and  _334
REMARK  132  A    between atoms: _334  and  _335
REMARK  133  A    between atoms: _338  and  _340
REMARK  134  A    between atoms: _340  and  _341
REMARK  135  A    between atoms: _340  and  _343
REMARK  136  A    between atoms: _343  and  _344
REMARK  137  A    between atoms: _344  and  _345
REMARK  138  A    between atoms: _351  and  _352
REMARK  139  A    between atoms: _357  and  _359
REMARK  140  A    between atoms: _359  and  _360
REMARK  141  A    between atoms: _359  and  _362
REMARK  142  A    between atoms: _362  and  _363
REMARK  143  A    between atoms: _365  and  _367
REMARK  144  A    between atoms: _367  and  _368
REMARK  145  A    between atoms: _367  and  _370
REMARK  146  A    between atoms: _370  and  _371
REMARK  147  A    between atoms: _374  and  _376
REMARK  148  A    between atoms: _376  and  _377
REMARK  149  A    between atoms: _379  and  _381
REMARK  150  A    between atoms: _381  and  _382
REMARK  151  A    between atoms: _381  and  _384
REMARK  152  A    between atoms: _387  and  _389
REMARK  153  A    between atoms: _389  and  _390
REMARK  154  A    between atoms: _392  and  _394
REMARK  155  A    between atoms: _394  and  _395
REMARK  156  A    between atoms: _394  and  _397
REMARK  157  A    between atoms: _397  and  _398
REMARK  158  A    between atoms: _403  and  _404
REMARK  159  A    between atoms: _406  and  _408
REMARK  160  A    between atoms: _408  and  _409
REMARK  161  A    between atoms: _408  and  _411
REMARK  162  A    between atoms: _411  and  _412
REMARK  163  A    between atoms: _412  and  _413
REMARK  164  A    between atoms: _416  and  _418
REMARK  165  A    between atoms: _418  and  _419
REMARK  166  A    between atoms: _418  and  _421
REMARK  167  A    between atoms: _421  and  _422
REMARK  168  A    between atoms: _426  and  _427
REMARK  169  A    between atoms: _432  and  _434
REMARK  170  A    between atoms: _434  and  _435
REMARK  171  A    between atoms: _434  and  _437
REMARK  172  A    between atoms: _437  and  _438
REMARK  173  A    between atoms: _440  and  _442
REMARK  174  A    between atoms: _442  and  _443
REMARK  175  A    between atoms: _442  and  _445
REMARK  176  A    between atoms: _445  and  _446
REMARK  177  A    between atoms: _449  and  _451
REMARK  178  A    between atoms: _451  and  _452
REMARK  179  A    between atoms: _451  and  _454
REMARK  180  A    between atoms: _457  and  _459
REMARK  181  A    between atoms: _459  and  _460
REMARK  182  A    between atoms: _459  and  _462
REMARK  183  A    between atoms: _462  and  _463
REMARK  184  A    between atoms: _466  and  _468
REMARK  185  A    between atoms: _468  and  _469
REMARK  186  A    between atoms: _468  and  _471
REMARK  187  A    between atoms: _471  and  _472
REMARK  188  A    between atoms: _474  and  _476
REMARK  189  A    between atoms: _476  and  _477
REMARK  190  A    between atoms: _480  and  _482
REMARK  191  A    between atoms: _482  and  _483
REMARK  192  A    between atoms: _482  and  _485
REMARK  193  A    between atoms: _485  and  _486
REMARK  194  A    between atoms: _486  and  _487
REMARK  195  A    between atoms: _489  and  _491
REMARK  196  A    between atoms: _491  and  _492
REMARK  197  A    between atoms: _491  and  _494
REMARK  198  A    between atoms: _494  and  _495
REMARK  199  A    between atoms: _498  and  _500
REMARK  200  A    between atoms: _500  and  _501
REMARK  201  A    between atoms: _500  and  _503
REMARK  202  A    between atoms: _503  and  _504
REMARK  203  A    between atoms: _504  and  _505
REMARK  204  A    between atoms: _505  and  _506
REMARK                            x       y       z     vdW  Elec       q    Type
REMARK                         _______ _______ _______ _____ _____    ______ ____
ROOT
ATOM      1  O   HOH     1      22.890  78.254  -3.082  0.00  0.00    +0.000 OA
ENDROOT
TORSDOF 0
REMARK  Name = ../refined-set-2016/4p5d/4p5d_pocket.pdb
REMARK  204 active torsions:
REMARK  status: ('A' for Active; 'I' for Inactive)
REMARK    1  A    between atoms: _1  and  _3
REMARK    2  A    between atoms: _3  and  _4
REMARK    3  A    between atoms: _3  and  _6
REMARK    4  A    between atoms: _6  and  _7
REMARK    5  A    between atoms: _12  and  _13
REMARK    6  A    between atoms: _15  and  _17
REMARK    7  A    between atoms: _17  and  _18
REMARK    8  A    between atoms: _17  and  _20
REMARK    9  A    between atoms: _20  and  _21
REMARK   10  A    between atoms: _27  and  _29
REMARK   11  A    between atoms: _29  and  _30
REMARK   12  A    between atoms: _29  and  _32
REMARK   13  A    between atoms: _34  and  _36
REMARK   14  A    between atoms: _36  and  _37
REMARK   15  A    between atoms: _39  and  _41
REMARK   16  A    between atoms: _41  and  _42
REMARK   17  A    between atoms: _41  and  _44
REMARK   18  A    between atoms: _44  and  _45
REMARK   19  A    between atoms: _47  and  _49
REMARK   20  A    between atoms: _49  and  _50
REMARK   21  A    between atoms: _49  and  _52
REMARK   22  A    between atoms: _52  and  _53
REMARK   23  A    between atoms: _56  and  _58
REMARK   24  A    between atoms: _58  and  _59
REMARK   25  A    between atoms: _58  and  _61
REMARK   26  A    between atoms: _61  and  _62
REMARK   27  A    between atoms: _62  and  _63
REMARK   28  A    between atoms: _63  and  _64
REMARK   29  A    between atoms: _73  and  _75
REMARK   30  A    between atoms: _75  and  _76
REMARK   31  A    between atoms: _78  and  _80
REMARK   32  A    between atoms: _80  and  _81
REMARK   33  A    between atoms: _83  and  _85
REMARK   34  A    between atoms: _85  and  _86
REMARK   35  A    between atoms: _85  and  _88
REMARK   36  A    between atoms: _88  and  _89
REMARK   37  A    between atoms: _89  and  _90
REMARK   38  A    between atoms: _90  and  _91
REMARK   39  A    between atoms: _100  and  _102
REMARK   40  A    between atoms: _102  and  _103
REMARK   41  A    between atoms: _102  and  _105
REMARK   42  A    between atoms: _105  and  _106
REMARK   43  A    between atoms: _111  and  _112
REMARK   44  A    between atoms: _114  and  _116
REMARK   45  A    between atoms: _116  and  _117
REMARK   46  A    between atoms: _116  and  _119
REMARK   47  A    between atoms: _119  and  _120
REMARK   48  A    between atoms: _123  and  _125
REMARK   49  A    between atoms: _125  and  _126
REMARK   50  A    between atoms: _125  and  _128
REMARK   51  A    between atoms: _128  and  _129
REMARK   52  A    between atoms: _129  and  _130
REMARK   53  A    between atoms: _133  and  _135
REMARK   54  A    between atoms: _135  and  _136
REMARK   55  A    between atoms: _135  and  _138
REMARK   56  A    between atoms: _138  and  _139
REMARK   57  A    between atoms: _144  and  _146
REMARK   58  A    between atoms: _146  and  _147
REMARK   59  A    between atoms: _146  and  _149
REMARK   60  A    between atoms: _152  and  _154
REMARK   61  A    between atoms: _154  and  _155
REMARK   62  A    between atoms: _154  and  _157
REMARK   63  A    between atoms: _157  and  _158
REMARK   64  A    between atoms: _161  and  _163
REMARK   65  A    between atoms: _163  and  _164
REMARK   66  A    between atoms: _163  and  _166
REMARK   67  A    between atoms: _166  and  _167
REMARK   68  A    between atoms: _167  and  _168
REMARK   69  A    between atoms: _172  and  _173
REMARK   70  A    between atoms: _178  and  _180
REMARK   71  A    between atoms: _180  and  _181
REMARK   72  A    between atoms: _180  and  _183
REMARK   73  A    between atoms: _183  and  _184
REMARK   74  A    between atoms: _187  and  _189
REMARK   75  A    between atoms: _189  and  _190
REMARK   76  A    between atoms: _192  and  _194
REMARK   77  A    between atoms: _194  and  _195
REMARK   78  A    between atoms: _194  and  _197
REMARK   79  A    between atoms: _197  and  _198
REMARK   80  A    between atoms: _198  and  _199
REMARK   81  A    between atoms: _202  and  _204
REMARK   82  A    between atoms: _204  and  _205
REMARK   83  A    between atoms: _204  and  _207
REMARK   84  A    between atoms: _207  and  _208
REMARK   85  A    between atoms: _208  and  _209
REMARK   86  A    between atoms: _212  and  _214
REMARK   87  A    between atoms: _214  and  _215
REMARK   88  A    between atoms: _218  and  _220
REMARK   89  A    between atoms: _220  and  _221
REMARK   90  A    between atoms: _224  and  _226
REMARK   91  A    between atoms: _226  and  _227
REMARK   92  A    between atoms: _229  and  _231
REMARK   93  A    between atoms: _231  and  _232
REMARK   94  A    between atoms: _234  and  _236
REMARK   95  A    between atoms: _236  and  _237
REMARK   96  A    between atoms: _236  and  _239
REMARK   97  A    between atoms: _239  and  _240
REMARK   98  A    between atoms: _243  and  _245
REMARK   99  A    between atoms: _245  and  _246
REMARK  100  A    between atoms: _245  and  _248
REMARK  101  A    between atoms: _248  and  _249
REMARK  102  A    between atoms: _255  and  _257
REMARK  103  A    between atoms: _257  and  _258
REMARK  104  A    between atoms: _257  and  _260
REMARK  105  A    between atoms: _260  and  _261
REMARK  106  A    between atoms: _264  and  _266
REMARK  107  A    between atoms: _266  and  _267
REMARK  108  A    between atoms: _266  and  _269
REMARK  109  A    between atoms: _269  and  _270
REMARK  110  A    between atoms: _275  and  _277
REMARK  111  A    between atoms: _277  and  _278
REMARK  112  A    between atoms: _277  and  _280
REMARK  113  A    between atoms: _280  and  _281
REMARK  114  A    between atoms: _281  and  _282
REMARK  115  A    between atoms: _287  and  _289
REMARK  116  A    between atoms: _289  and  _290
REMARK  117  A    between atoms: _289  and  _292
REMARK  118  A    between atoms: _292  and  _293
REMARK  119  A    between atoms: _298  and  _300
REMARK  120  A    between atoms: _300  and  _301
REMARK  121  A    between atoms: _300  and  _303
REMARK  122  A    between atoms: _303  and  _304
REMARK  123  A    between atoms: _314  and  _316
REMARK  124  A    between atoms: _316  and  _317
REMARK  125  A    between atoms: _316  and  _319
REMARK  126  A    between atoms: _322  and  _324
REMARK  127  A    between atoms: _324  and  _325
REMARK  128  A    between atoms: _328  and  _330
REMARK  129  A    between atoms: _330  and  _331
REMARK  130  A    between atoms: _330  and  _333
REMARK  131  A    between atoms: _333  and  _334
REMARK  132  A    between atoms: _334  and  _335
REMARK  133  A    between atoms: _338  and  _340
REMARK  134  A    between atoms: _340  and  _341
REMARK  135  A    between atoms: _340  and  _343
REMARK  136  A    between atoms: _343  and  _344
REMARK  137  A    between atoms: _344  and  _345
REMARK  138  A    between atoms: _351  and  _352
REMARK  139  A    between atoms: _357  and  _359
REMARK  140  A    between atoms: _359  and  _360
REMARK  141  A    between atoms: _359  and  _362
REMARK  142  A    between atoms: _362  and  _363
REMARK  143  A    between atoms: _365  and  _367
REMARK  144  A    between atoms: _367  and  _368
REMARK  145  A    between atoms: _367  and  _370
REMARK  146  A    between atoms: _370  and  _371
REMARK  147  A    between atoms: _374  and  _376
REMARK  148  A    between atoms: _376  and  _377
REMARK  149  A    between atoms: _379  and  _381
REMARK  150  A    between atoms: _381  and  _382
REMARK  151  A    between atoms: _381  and  _384
REMARK  152  A    between atoms: _387  and  _389
REMARK  153  A    between atoms: _389  and  _390
REMARK  154  A    between atoms: _392  and  _394
REMARK  155  A    between atoms: _394  and  _395
REMARK  156  A    between atoms: _394  and  _397
REMARK  157  A    between atoms: _397  and  _398
REMARK  158  A    between atoms: _403  and  _404
REMARK  159  A    between atoms: _406  and  _408
REMARK  160  A    between atoms: _408  and  _409
REMARK  161  A    between atoms: _408  and  _411
REMARK  162  A    between atoms: _411  and  _412
REMARK  163  A    between atoms: _412  and  _413
REMARK  164  A    between atoms: _416  and  _418
REMARK  165  A    between atoms: _418  and  _419
REMARK  166  A    between atoms: _418  and  _421
REMARK  167  A    between atoms: _421  and  _422
REMARK  168  A    between atoms: _426  and  _427
REMARK  169  A    between atoms: _432  and  _434
REMARK  170  A    between atoms: _434  and  _435
REMARK  171  A    between atoms: _434  and  _437
REMARK  172  A    between atoms: _437  and  _438
REMARK  173  A    between atoms: _440  and  _442
REMARK  174  A    between atoms: _442  and  _443
REMARK  175  A    between atoms: _442  and  _445
REMARK  176  A    between atoms: _445  and  _446
REMARK  177  A    between atoms: _449  and  _451
REMARK  178  A    between atoms: _451  and  _452
REMARK  179  A    between atoms: _451  and  _454
REMARK  180  A    between atoms: _457  and  _459
REMARK  181  A    between atoms: _459  and  _460
REMARK  182  A    between atoms: _459  and  _462
REMARK  183  A    between atoms: _462  and  _463
REMARK  184  A    between atoms: _466  and  _468
REMARK  185  A    between atoms: _468  and  _469
REMARK  186  A    between atoms: _468  and  _471
REMARK  187  A    between atoms: _471  and  _472
REMARK  188  A    between atoms: _474  and  _476
REMARK  189  A    between atoms: _476  and  _477
REMARK  190  A    between atoms: _480  and  _482
REMARK  191  A    between atoms: _482  and  _483
REMARK  192  A    between atoms: _482  and  _485
REMARK  193  A    between atoms: _485  and  _486
REMARK  194  A    between atoms: _486  and  _487
REMARK  195  A    between atoms: _489  and  _491
REMARK  196  A    between atoms: _491  and  _492
REMARK  197  A    between atoms: _491  and  _494
REMARK  198  A    between atoms: _494  and  _495
REMARK  199  A    between atoms: _498  and  _500
REMARK  200  A    between atoms: _500  and  _501
REMARK  201  A    between atoms: _500  and  _503
REMARK  202  A    between atoms: _503  and  _504
REMARK  203  A    between atoms: _504  and  _505
REMARK  204  A    between atoms: _505  and  _506
REMARK                            x       y       z     vdW  Elec       q    Type
REMARK                         _______ _______ _______ _____ _____    ______ ____
ROOT
ATOM      1  O   HOH     1       7.412  82.413 -14.348  0.00  0.00    +0.000 OA
ENDROOT
TORSDOF 0
REMARK  Name = ../refined-set-2016/4p5d/4p5d_pocket.pdb
REMARK  204 active torsions:
REMARK  status: ('A' for Active; 'I' for Inactive)
REMARK    1  A    between atoms: _1  and  _3
REMARK    2  A    between atoms: _3  and  _4
REMARK    3  A    between atoms: _3  and  _6
REMARK    4  A    between atoms: _6  and  _7
REMARK    5  A    between atoms: _12  and  _13
REMARK    6  A    between atoms: _15  and  _17
REMARK    7  A    between atoms: _17  and  _18
REMARK    8  A    between atoms: _17  and  _20
REMARK    9  A    between atoms: _20  and  _21
REMARK   10  A    between atoms: _27  and  _29
REMARK   11  A    between atoms: _29  and  _30
REMARK   12  A    between atoms: _29  and  _32
REMARK   13  A    between atoms: _34  and  _36
REMARK   14  A    between atoms: _36  and  _37
REMARK   15  A    between atoms: _39  and  _41
REMARK   16  A    between atoms: _41  and  _42
REMARK   17  A    between atoms: _41  and  _44
REMARK   18  A    between atoms: _44  and  _45
REMARK   19  A    between atoms: _47  and  _49
REMARK   20  A    between atoms: _49  and  _50
REMARK   21  A    between atoms: _49  and  _52
REMARK   22  A    between atoms: _52  and  _53
REMARK   23  A    between atoms: _56  and  _58
REMARK   24  A    between atoms: _58  and  _59
REMARK   25  A    between atoms: _58  and  _61
REMARK   26  A    between atoms: _61  and  _62
REMARK   27  A    between atoms: _62  and  _63
REMARK   28  A    between atoms: _63  and  _64
REMARK   29  A    between atoms: _73  and  _75
REMARK   30  A    between atoms: _75  and  _76
REMARK   31  A    between atoms: _78  and  _80
REMARK   32  A    between atoms: _80  and  _81
REMARK   33  A    between atoms: _83  and  _85
REMARK   34  A    between atoms: _85  and  _86
REMARK   35  A    between atoms: _85  and  _88
REMARK   36  A    between atoms: _88  and  _89
REMARK   37  A    between atoms: _89  and  _90
REMARK   38  A    between atoms: _90  and  _91
REMARK   39  A    between atoms: _100  and  _102
REMARK   40  A    between atoms: _102  and  _103
REMARK   41  A    between atoms: _102  and  _105
REMARK   42  A    between atoms: _105  and  _106
REMARK   43  A    between atoms: _111  and  _112
REMARK   44  A    between atoms: _114  and  _116
REMARK   45  A    between atoms: _116  and  _117
REMARK   46  A    between atoms: _116  and  _119
REMARK   47  A    between atoms: _119  and  _120
REMARK   48  A    between atoms: _123  and  _125
REMARK   49  A    between atoms: _125  and  _126
REMARK   50  A    between atoms: _125  and  _128
REMARK   51  A    between atoms: _128  and  _129
REMARK   52  A    between atoms: _129  and  _130
REMARK   53  A    between atoms: _133  and  _135
REMARK   54  A    between atoms: _135  and  _136
REMARK   55  A    between atoms: _135  and  _138
REMARK   56  A    between atoms: _138  and  _139
REMARK   57  A    between atoms: _144  and  _146
REMARK   58  A    between atoms: _146  and  _147
REMARK   59  A    between atoms: _146  and  _149
REMARK   60  A    between atoms: _152  and  _154
REMARK   61  A    between atoms: _154  and  _155
REMARK   62  A    between atoms: _154  and  _157
REMARK   63  A    between atoms: _157  and  _158
REMARK   64  A    between atoms: _161  and  _163
REMARK   65  A    between atoms: _163  and  _164
REMARK   66  A    between atoms: _163  and  _166
REMARK   67  A    between atoms: _166  and  _167
REMARK   68  A    between atoms: _167  and  _168
REMARK   69  A    between atoms: _172  and  _173
REMARK   70  A    between atoms: _178  and  _180
REMARK   71  A    between atoms: _180  and  _181
REMARK   72  A    between atoms: _180  and  _183
REMARK   73  A    between atoms: _183  and  _184
REMARK   74  A    between atoms: _187  and  _189
REMARK   75  A    between atoms: _189  and  _190
REMARK   76  A    between atoms: _192  and  _194
REMARK   77  A    between atoms: _194  and  _195
REMARK   78  A    between atoms: _194  and  _197
REMARK   79  A    between atoms: _197  and  _198
REMARK   80  A    between atoms: _198  and  _199
REMARK   81  A    between atoms: _202  and  _204
REMARK   82  A    between atoms: _204  and  _205
REMARK   83  A    between atoms: _204  and  _207
REMARK   84  A    between atoms: _207  and  _208
REMARK   85  A    between atoms: _208  and  _209
REMARK   86  A    between atoms: _212  and  _214
REMARK   87  A    between atoms: _214  and  _215
REMARK   88  A    between atoms: _218  and  _220
REMARK   89  A    between atoms: _220  and  _221
REMARK   90  A    between atoms: _224  and  _226
REMARK   91  A    between atoms: _226  and  _227
REMARK   92  A    between atoms: _229  and  _231
REMARK   93  A    between atoms: _231  and  _232
REMARK   94  A    between atoms: _234  and  _236
REMARK   95  A    between atoms: _236  and  _237
REMARK   96  A    between atoms: _236  and  _239
REMARK   97  A    between atoms: _239  and  _240
REMARK   98  A    between atoms: _243  and  _245
REMARK   99  A    between atoms: _245  and  _246
REMARK  100  A    between atoms: _245  and  _248
REMARK  101  A    between atoms: _248  and  _249
REMARK  102  A    between atoms: _255  and  _257
REMARK  103  A    between atoms: _257  and  _258
REMARK  104  A    between atoms: _257  and  _260
REMARK  105  A    between atoms: _260  and  _261
REMARK  106  A    between atoms: _264  and  _266
REMARK  107  A    between atoms: _266  and  _267
REMARK  108  A    between atoms: _266  and  _269
REMARK  109  A    between atoms: _269  and  _270
REMARK  110  A    between atoms: _275  and  _277
REMARK  111  A    between atoms: _277  and  _278
REMARK  112  A    between atoms: _277  and  _280
REMARK  113  A    between atoms: _280  and  _281
REMARK  114  A    between atoms: _281  and  _282
REMARK  115  A    between atoms: _287  and  _289
REMARK  116  A    between atoms: _289  and  _290
REMARK  117  A    between atoms: _289  and  _292
REMARK  118  A    between atoms: _292  and  _293
REMARK  119  A    between atoms: _298  and  _300
REMARK  120  A    between atoms: _300  and  _301
REMARK  121  A    between atoms: _300  and  _303
REMARK  122  A    between atoms: _303  and  _304
REMARK  123  A    between atoms: _314  and  _316
REMARK  124  A    between atoms: _316  and  _317
REMARK  125  A    between atoms: _316  and  _319
REMARK  126  A    between atoms: _322  and  _324
REMARK  127  A    between atoms: _324  and  _325
REMARK  128  A    between atoms: _328  and  _330
REMARK  129  A    between atoms: _330  and  _331
REMARK  130  A    between atoms: _330  and  _333
REMARK  131  A    between atoms: _333  and  _334
REMARK  132  A    between atoms: _334  and  _335
REMARK  133  A    between atoms: _338  and  _340
REMARK  134  A    between atoms: _340  and  _341
REMARK  135  A    between atoms: _340  and  _343
REMARK  136  A    between atoms: _343  and  _344
REMARK  137  A    between atoms: _344  and  _345
REMARK  138  A    between atoms: _351  and  _352
REMARK  139  A    between atoms: _357  and  _359
REMARK  140  A    between atoms: _359  and  _360
REMARK  141  A    between atoms: _359  and  _362
REMARK  142  A    between atoms: _362  and  _363
REMARK  143  A    between atoms: _365  and  _367
REMARK  144  A    between atoms: _367  and  _368
REMARK  145  A    between atoms: _367  and  _370
REMARK  146  A    between atoms: _370  and  _371
REMARK  147  A    between atoms: _374  and  _376
REMARK  148  A    between atoms: _376  and  _377
REMARK  149  A    between atoms: _379  and  _381
REMARK  150  A    between atoms: _381  and  _382
REMARK  151  A    between atoms: _381  and  _384
REMARK  152  A    between atoms: _387  and  _389
REMARK  153  A    between atoms: _389  and  _390
REMARK  154  A    between atoms: _392  and  _394
REMARK  155  A    between atoms: _394  and  _395
REMARK  156  A    between atoms: _394  and  _397
REMARK  157  A    between atoms: _397  and  _398
REMARK  158  A    between atoms: _403  and  _404
REMARK  159  A    between atoms: _406  and  _408
REMARK  160  A    between atoms: _408  and  _409
REMARK  161  A    between atoms: _408  and  _411
REMARK  162  A    between atoms: _411  and  _412
REMARK  163  A    between atoms: _412  and  _413
REMARK  164  A    between atoms: _416  and  _418
REMARK  165  A    between atoms: _418  and  _419
REMARK  166  A    between atoms: _418  and  _421
REMARK  167  A    between atoms: _421  and  _422
REMARK  168  A    between atoms: _426  and  _427
REMARK  169  A    between atoms: _432  and  _434
REMARK  170  A    between atoms: _434  and  _435
REMARK  171  A    between atoms: _434  and  _437
REMARK  172  A    between atoms: _437  and  _438
REMARK  173  A    between atoms: _440  and  _442
REMARK  174  A    between atoms: _442  and  _443
REMARK  175  A    between atoms: _442  and  _445
REMARK  176  A    between atoms: _445  and  _446
REMARK  177  A    between atoms: _449  and  _451
REMARK  178  A    between atoms: _451  and  _452
REMARK  179  A    between atoms: _451  and  _454
REMARK  180  A    between atoms: _457  and  _459
REMARK  181  A    between atoms: _459  and  _460
REMARK  182  A    between atoms: _459  and  _462
REMARK  183  A    between atoms: _462  and  _463
REMARK  184  A    between atoms: _466  and  _468
REMARK  185  A    between atoms: _468  and  _469
REMARK  186  A    between atoms: _468  and  _471
REMARK  187  A    between atoms: _471  and  _472
REMARK  188  A    between atoms: _474  and  _476
REMARK  189  A    between atoms: _476  and  _477
REMARK  190  A    between atoms: _480  and  _482
REMARK  191  A    between atoms: _482  and  _483
REMARK  192  A    between atoms: _482  and  _485
REMARK  193  A    between atoms: _485  and  _486
REMARK  194  A    between atoms: _486  and  _487
REMARK  195  A    between atoms: _489  and  _491
REMARK  196  A    between atoms: _491  and  _492
REMARK  197  A    between atoms: _491  and  _494
REMARK  198  A    between atoms: _494  and  _495
REMARK  199  A    between atoms: _498  and  _500
REMARK  200  A    between atoms: _500  and  _501
REMARK  201  A    between atoms: _500  and  _503
REMARK  202  A    between atoms: _503  and  _504
REMARK  203  A    between atoms: _504  and  _505
REMARK  204  A    between atoms: _505  and  _506
REMARK                            x       y       z     vdW  Elec       q    Type
REMARK                         _______ _______ _______ _____ _____    ______ ____
ROOT
ATOM      1  O   HOH     1       6.784  79.928 -15.029  0.00  0.00    +0.000 OA
ENDROOT
TORSDOF 0
REMARK  Name = ../refined-set-2016/4p5d/4p5d_pocket.pdb
REMARK  204 active torsions:
REMARK  status: ('A' for Active; 'I' for Inactive)
REMARK    1  A    between atoms: _1  and  _3
REMARK    2  A    between atoms: _3  and  _4
REMARK    3  A    between atoms: _3  and  _6
REMARK    4  A    between atoms: _6  and  _7
REMARK    5  A    between atoms: _12  and  _13
REMARK    6  A    between atoms: _15  and  _17
REMARK    7  A    between atoms: _17  and  _18
REMARK    8  A    between atoms: _17  and  _20
REMARK    9  A    between atoms: _20  and  _21
REMARK   10  A    between atoms: _27  and  _29
REMARK   11  A    between atoms: _29  and  _30
REMARK   12  A    between atoms: _29  and  _32
REMARK   13  A    between atoms: _34  and  _36
REMARK   14  A    between atoms: _36  and  _37
REMARK   15  A    between atoms: _39  and  _41
REMARK   16  A    between atoms: _41  and  _42
REMARK   17  A    between atoms: _41  and  _44
REMARK   18  A    between atoms: _44  and  _45
REMARK   19  A    between atoms: _47  and  _49
REMARK   20  A    between atoms: _49  and  _50
REMARK   21  A    between atoms: _49  and  _52
REMARK   22  A    between atoms: _52  and  _53
REMARK   23  A    between atoms: _56  and  _58
REMARK   24  A    between atoms: _58  and  _59
REMARK   25  A    between atoms: _58  and  _61
REMARK   26  A    between atoms: _61  and  _62
REMARK   27  A    between atoms: _62  and  _63
REMARK   28  A    between atoms: _63  and  _64
REMARK   29  A    between atoms: _73  and  _75
REMARK   30  A    between atoms: _75  and  _76
REMARK   31  A    between atoms: _78  and  _80
REMARK   32  A    between atoms: _80  and  _81
REMARK   33  A    between atoms: _83  and  _85
REMARK   34  A    between atoms: _85  and  _86
REMARK   35  A    between atoms: _85  and  _88
REMARK   36  A    between atoms: _88  and  _89
REMARK   37  A    between atoms: _89  and  _90
REMARK   38  A    between atoms: _90  and  _91
REMARK   39  A    between atoms: _100  and  _102
REMARK   40  A    between atoms: _102  and  _103
REMARK   41  A    between atoms: _102  and  _105
REMARK   42  A    between atoms: _105  and  _106
REMARK   43  A    between atoms: _111  and  _112
REMARK   44  A    between atoms: _114  and  _116
REMARK   45  A    between atoms: _116  and  _117
REMARK   46  A    between atoms: _116  and  _119
REMARK   47  A    between atoms: _119  and  _120
REMARK   48  A    between atoms: _123  and  _125
REMARK   49  A    between atoms: _125  and  _126
REMARK   50  A    between atoms: _125  and  _128
REMARK   51  A    between atoms: _128  and  _129
REMARK   52  A    between atoms: _129  and  _130
REMARK   53  A    between atoms: _133  and  _135
REMARK   54  A    between atoms: _135  and  _136
REMARK   55  A    between atoms: _135  and  _138
REMARK   56  A    between atoms: _138  and  _139
REMARK   57  A    between atoms: _144  and  _146
REMARK   58  A    between atoms: _146  and  _147
REMARK   59  A    between atoms: _146  and  _149
REMARK   60  A    between atoms: _152  and  _154
REMARK   61  A    between atoms: _154  and  _155
REMARK   62  A    between atoms: _154  and  _157
REMARK   63  A    between atoms: _157  and  _158
REMARK   64  A    between atoms: _161  and  _163
REMARK   65  A    between atoms: _163  and  _164
REMARK   66  A    between atoms: _163  and  _166
REMARK   67  A    between atoms: _166  and  _167
REMARK   68  A    between atoms: _167  and  _168
REMARK   69  A    between atoms: _172  and  _173
REMARK   70  A    between atoms: _178  and  _180
REMARK   71  A    between atoms: _180  and  _181
REMARK   72  A    between atoms: _180  and  _183
REMARK   73  A    between atoms: _183  and  _184
REMARK   74  A    between atoms: _187  and  _189
REMARK   75  A    between atoms: _189  and  _190
REMARK   76  A    between atoms: _192  and  _194
REMARK   77  A    between atoms: _194  and  _195
REMARK   78  A    between atoms: _194  and  _197
REMARK   79  A    between atoms: _197  and  _198
REMARK   80  A    between atoms: _198  and  _199
REMARK   81  A    between atoms: _202  and  _204
REMARK   82  A    between atoms: _204  and  _205
REMARK   83  A    between atoms: _204  and  _207
REMARK   84  A    between atoms: _207  and  _208
REMARK   85  A    between atoms: _208  and  _209
REMARK   86  A    between atoms: _212  and  _214
REMARK   87  A    between atoms: _214  and  _215
REMARK   88  A    between atoms: _218  and  _220
REMARK   89  A    between atoms: _220  and  _221
REMARK   90  A    between atoms: _224  and  _226
REMARK   91  A    between atoms: _226  and  _227
REMARK   92  A    between atoms: _229  and  _231
REMARK   93  A    between atoms: _231  and  _232
REMARK   94  A    between atoms: _234  and  _236
REMARK   95  A    between atoms: _236  and  _237
REMARK   96  A    between atoms: _236  and  _239
REMARK   97  A    between atoms: _239  and  _240
REMARK   98  A    between atoms: _243  and  _245
REMARK   99  A    between atoms: _245  and  _246
REMARK  100  A    between atoms: _245  and  _248
REMARK  101  A    between atoms: _248  and  _249
REMARK  102  A    between atoms: _255  and  _257
REMARK  103  A    between atoms: _257  and  _258
REMARK  104  A    between atoms: _257  and  _260
REMARK  105  A    between atoms: _260  and  _261
REMARK  106  A    between atoms: _264  and  _266
REMARK  107  A    between atoms: _266  and  _267
REMARK  108  A    between atoms: _266  and  _269
REMARK  109  A    between atoms: _269  and  _270
REMARK  110  A    between atoms: _275  and  _277
REMARK  111  A    between atoms: _277  and  _278
REMARK  112  A    between atoms: _277  and  _280
REMARK  113  A    between atoms: _280  and  _281
REMARK  114  A    between atoms: _281  and  _282
REMARK  115  A    between atoms: _287  and  _289
REMARK  116  A    between atoms: _289  and  _290
REMARK  117  A    between atoms: _289  and  _292
REMARK  118  A    between atoms: _292  and  _293
REMARK  119  A    between atoms: _298  and  _300
REMARK  120  A    between atoms: _300  and  _301
REMARK  121  A    between atoms: _300  and  _303
REMARK  122  A    between atoms: _303  and  _304
REMARK  123  A    between atoms: _314  and  _316
REMARK  124  A    between atoms: _316  and  _317
REMARK  125  A    between atoms: _316  and  _319
REMARK  126  A    between atoms: _322  and  _324
REMARK  127  A    between atoms: _324  and  _325
REMARK  128  A    between atoms: _328  and  _330
REMARK  129  A    between atoms: _330  and  _331
REMARK  130  A    between atoms: _330  and  _333
REMARK  131  A    between atoms: _333  and  _334
REMARK  132  A    between atoms: _334  and  _335
REMARK  133  A    between atoms: _338  and  _340
REMARK  134  A    between atoms: _340  and  _341
REMARK  135  A    between atoms: _340  and  _343
REMARK  136  A    between atoms: _343  and  _344
REMARK  137  A    between atoms: _344  and  _345
REMARK  138  A    between atoms: _351  and  _352
REMARK  139  A    between atoms: _357  and  _359
REMARK  140  A    between atoms: _359  and  _360
REMARK  141  A    between atoms: _359  and  _362
REMARK  142  A    between atoms: _362  and  _363
REMARK  143  A    between atoms: _365  and  _367
REMARK  144  A    between atoms: _367  and  _368
REMARK  145  A    between atoms: _367  and  _370
REMARK  146  A    between atoms: _370  and  _371
REMARK  147  A    between atoms: _374  and  _376
REMARK  148  A    between atoms: _376  and  _377
REMARK  149  A    between atoms: _379  and  _381
REMARK  150  A    between atoms: _381  and  _382
REMARK  151  A    between atoms: _381  and  _384
REMARK  152  A    between atoms: _387  and  _389
REMARK  153  A    between atoms: _389  and  _390
REMARK  154  A    between atoms: _392  and  _394
REMARK  155  A    between atoms: _394  and  _395
REMARK  156  A    between atoms: _394  and  _397
REMARK  157  A    between atoms: _397  and  _398
REMARK  158  A    between atoms: _403  and  _404
REMARK  159  A    between atoms: _406  and  _408
REMARK  160  A    between atoms: _408  and  _409
REMARK  161  A    between atoms: _408  and  _411
REMARK  162  A    between atoms: _411  and  _412
REMARK  163  A    between atoms: _412  and  _413
REMARK  164  A    between atoms: _416  and  _418
REMARK  165  A    between atoms: _418  and  _419
REMARK  166  A    between atoms: _418  and  _421
REMARK  167  A    between atoms: _421  and  _422
REMARK  168  A    between atoms: _426  and  _427
REMARK  169  A    between atoms: _432  and  _434
REMARK  170  A    between atoms: _434  and  _435
REMARK  171  A    between atoms: _434  and  _437
REMARK  172  A    between atoms: _437  and  _438
REMARK  173  A    between atoms: _440  and  _442
REMARK  174  A    between atoms: _442  and  _443
REMARK  175  A    between atoms: _442  and  _445
REMARK  176  A    between atoms: _445  and  _446
REMARK  177  A    between atoms: _449  and  _451
REMARK  178  A    between atoms: _451  and  _452
REMARK  179  A    between atoms: _451  and  _454
REMARK  180  A    between atoms: _457  and  _459
REMARK  181  A    between atoms: _459  and  _460
REMARK  182  A    between atoms: _459  and  _462
REMARK  183  A    between atoms: _462  and  _463
REMARK  184  A    between atoms: _466  and  _468
REMARK  185  A    between atoms: _468  and  _469
REMARK  186  A    between atoms: _468  and  _471
REMARK  187  A    between atoms: _471  and  _472
REMARK  188  A    between atoms: _474  and  _476
REMARK  189  A    between atoms: _476  and  _477
REMARK  190  A    between atoms: _480  and  _482
REMARK  191  A    between atoms: _482  and  _483
REMARK  192  A    between atoms: _482  and  _485
REMARK  193  A    between atoms: _485  and  _486
REMARK  194  A    between atoms: _486  and  _487
REMARK  195  A    between atoms: _489  and  _491
REMARK  196  A    between atoms: _491  and  _492
REMARK  197  A    between atoms: _491  and  _494
REMARK  198  A    between atoms: _494  and  _495
REMARK  199  A    between atoms: _498  and  _500
REMARK  200  A    between atoms: _500  and  _501
REMARK  201  A    between atoms: _500  and  _503
REMARK  202  A    between atoms: _503  and  _504
REMARK  203  A    between atoms: _504  and  _505
REMARK  204  A    between atoms: _505  and  _506
REMARK                            x       y       z     vdW  Elec       q    Type
REMARK                         _______ _______ _______ _____ _____    ______ ____
ROOT
ATOM      1  O   HOH     1       6.346  80.602 -17.632  0.00  0.00    +0.000 OA
ENDROOT
TORSDOF 0
