REMARK  Name = ../refined-set-2016/2yln/2yln_pocket.pdb
REMARK  141 active torsions:
REMARK  status: ('A' for Active; 'I' for Inactive)
REMARK    1  A    between atoms: _1  and  _3
REMARK    2  A    between atoms: _3  and  _4
REMARK    3  A    between atoms: _3  and  _6
REMARK    4  A    between atoms: _6  and  _7
REMARK    5  A    between atoms: _7  and  _8
REMARK    6  A    between atoms: _11  and  _13
REMARK    7  A    between atoms: _13  and  _14
REMARK    8  A    between atoms: _13  and  _16
REMARK    9  A    between atoms: _16  and  _17
REMARK   10  A    between atoms: _22  and  _23
REMARK   11  A    between atoms: _25  and  _27
REMARK   12  A    between atoms: _27  and  _28
REMARK   13  A    between atoms: _27  and  _30
REMARK   14  A    between atoms: _30  and  _31
REMARK   15  A    between atoms: _37  and  _39
REMARK   16  A    between atoms: _39  and  _40
REMARK   17  A    between atoms: _39  and  _42
REMARK   18  A    between atoms: _42  and  _43
REMARK   19  A    between atoms: _46  and  _48
REMARK   20  A    between atoms: _48  and  _49
REMARK   21  A    between atoms: _48  and  _51
REMARK   22  A    between atoms: _51  and  _52
REMARK   23  A    between atoms: _55  and  _57
REMARK   24  A    between atoms: _57  and  _58
REMARK   25  A    between atoms: _57  and  _60
REMARK   26  A    between atoms: _60  and  _61
REMARK   27  A    between atoms: _71  and  _73
REMARK   28  A    between atoms: _73  and  _74
REMARK   29  A    between atoms: _73  and  _76
REMARK   30  A    between atoms: _76  and  _77
REMARK   31  A    between atoms: _80  and  _82
REMARK   32  A    between atoms: _82  and  _83
REMARK   33  A    between atoms: _82  and  _85
REMARK   34  A    between atoms: _85  and  _86
REMARK   35  A    between atoms: _86  and  _87
REMARK   36  A    between atoms: _89  and  _91
REMARK   37  A    between atoms: _91  and  _92
REMARK   38  A    between atoms: _91  and  _94
REMARK   39  A    between atoms: _94  and  _95
REMARK   40  A    between atoms: _95  and  _96
REMARK   41  A    between atoms: _98  and  _100
REMARK   42  A    between atoms: _100  and  _101
REMARK   43  A    between atoms: _100  and  _103
REMARK   44  A    between atoms: _106  and  _108
REMARK   45  A    between atoms: _108  and  _109
REMARK   46  A    between atoms: _112  and  _114
REMARK   47  A    between atoms: _114  and  _115
REMARK   48  A    between atoms: _114  and  _117
REMARK   49  A    between atoms: _117  and  _118
REMARK   50  A    between atoms: _123  and  _125
REMARK   51  A    between atoms: _125  and  _126
REMARK   52  A    between atoms: _125  and  _128
REMARK   53  A    between atoms: _128  and  _129
REMARK   54  A    between atoms: _129  and  _130
REMARK   55  A    between atoms: _135  and  _137
REMARK   56  A    between atoms: _137  and  _138
REMARK   57  A    between atoms: _137  and  _140
REMARK   58  A    between atoms: _143  and  _145
REMARK   59  A    between atoms: _145  and  _146
REMARK   60  A    between atoms: _148  and  _150
REMARK   61  A    between atoms: _150  and  _151
REMARK   62  A    between atoms: _150  and  _153
REMARK   63  A    between atoms: _153  and  _154
REMARK   64  A    between atoms: _157  and  _159
REMARK   65  A    between atoms: _159  and  _160
REMARK   66  A    between atoms: _159  and  _162
REMARK   67  A    between atoms: _162  and  _163
REMARK   68  A    between atoms: _166  and  _168
REMARK   69  A    between atoms: _168  and  _169
REMARK   70  A    between atoms: _168  and  _171
REMARK   71  A    between atoms: _171  and  _172
REMARK   72  A    between atoms: _174  and  _176
REMARK   73  A    between atoms: _176  and  _177
REMARK   74  A    between atoms: _176  and  _179
REMARK   75  A    between atoms: _179  and  _180
REMARK   76  A    between atoms: _180  and  _181
REMARK   77  A    between atoms: _181  and  _182
REMARK   78  A    between atoms: _191  and  _193
REMARK   79  A    between atoms: _193  and  _194
REMARK   80  A    between atoms: _193  and  _196
REMARK   81  A    between atoms: _196  and  _197
REMARK   82  A    between atoms: _199  and  _201
REMARK   83  A    between atoms: _201  and  _202
REMARK   84  A    between atoms: _201  and  _204
REMARK   85  A    between atoms: _204  and  _205
REMARK   86  A    between atoms: _208  and  _210
REMARK   87  A    between atoms: _210  and  _211
REMARK   88  A    between atoms: _210  and  _213
REMARK   89  A    between atoms: _213  and  _214
REMARK   90  A    between atoms: _217  and  _219
REMARK   91  A    between atoms: _219  and  _220
REMARK   92  A    between atoms: _219  and  _222
REMARK   93  A    between atoms: _222  and  _223
REMARK   94  A    between atoms: _225  and  _227
REMARK   95  A    between atoms: _227  and  _228
REMARK   96  A    between atoms: _227  and  _230
REMARK   97  A    between atoms: _230  and  _231
REMARK   98  A    between atoms: _236  and  _238
REMARK   99  A    between atoms: _238  and  _239
REMARK  100  A    between atoms: _238  and  _241
REMARK  101  A    between atoms: _241  and  _242
REMARK  102  A    between atoms: _247  and  _248
REMARK  103  A    between atoms: _250  and  _252
REMARK  104  A    between atoms: _252  and  _253
REMARK  105  A    between atoms: _255  and  _257
REMARK  106  A    between atoms: _257  and  _258
REMARK  107  A    between atoms: _257  and  _260
REMARK  108  A    between atoms: _260  and  _261
REMARK  109  A    between atoms: _261  and  _262
REMARK  110  A    between atoms: _265  and  _267
REMARK  111  A    between atoms: _267  and  _268
REMARK  112  A    between atoms: _267  and  _270
REMARK  113  A    between atoms: _270  and  _271
REMARK  114  A    between atoms: _271  and  _272
REMARK  115  A    between atoms: _272  and  _273
REMARK  116  A    between atoms: _273  and  _274
REMARK  117  A    between atoms: _278  and  _280
REMARK  118  A    between atoms: _280  and  _281
REMARK  119  A    between atoms: _280  and  _283
REMARK  120  A    between atoms: _283  and  _284
REMARK  121  A    between atoms: _287  and  _289
REMARK  122  A    between atoms: _289  and  _290
REMARK  123  A    between atoms: _289  and  _292
REMARK  124  A    between atoms: _292  and  _293
REMARK  125  A    between atoms: _298  and  _300
REMARK  126  A    between atoms: _300  and  _301
REMARK  127  A    between atoms: _300  and  _303
REMARK  128  A    between atoms: _303  and  _304
REMARK  129  A    between atoms: _307  and  _309
REMARK  130  A    between atoms: _309  and  _310
REMARK  131  A    between atoms: _309  and  _312
REMARK  132  A    between atoms: _315  and  _317
REMARK  133  A    between atoms: _317  and  _318
REMARK  134  A    between atoms: _317  and  _320
REMARK  135  A    between atoms: _320  and  _321
REMARK  136  A    between atoms: _323  and  _325
REMARK  137  A    between atoms: _325  and  _326
REMARK  138  A    between atoms: _328  and  _330
REMARK  139  A    between atoms: _330  and  _331
REMARK  140  A    between atoms: _330  and  _333
REMARK  141  A    between atoms: _333  and  _334
REMARK                            x       y       z     vdW  Elec       q    Type
REMARK                         _______ _______ _______ _____ _____    ______ ____
ROOT
ATOM      1  CA  GLU A   1       4.119  -3.650   6.101  0.00  0.00    +0.134 C 
ENDROOT
BRANCH   1   2
ATOM      2  N   GLU A   1       5.234  -2.858   6.661  0.00  0.00    -0.239 NA
ATOM      3  H   GLU A   1       6.079  -2.684   6.080  0.00  0.00    +0.142 HD
ENDBRANCH   1   2
BRANCH   1   4
ATOM      4  C   GLU A   1       4.036  -5.045   6.615  0.00  0.00    +0.224 C 
ATOM      5  O   GLU A   1       2.948  -5.539   6.906  0.00  0.00    -0.287 OA
ENDBRANCH   1   4
BRANCH   1   6
ATOM      6  CB  GLU A   1       4.171  -3.700   4.575  0.00  0.00    +0.037 C 
BRANCH   6   7
ATOM      7  CG  GLU A   1       3.867  -2.380   3.849  0.00  0.00    +0.116 C 
BRANCH   7   8
ATOM      8  CD  GLU A   1       3.981  -2.545   2.365  0.00  0.00    +0.365 C 
ATOM      9  OE2 GLU A   1       5.129  -2.446   1.875  0.00  0.00    -0.246 OA
ATOM     10  OE1 GLU A   1       2.992  -2.891   1.701  0.00  0.00    -0.246 OA
ENDBRANCH   7   8
ENDBRANCH   6   7
ENDBRANCH   1   6
TORSDOF 5
REMARK  Name = ../refined-set-2016/2yln/2yln_pocket.pdb
REMARK  141 active torsions:
REMARK  status: ('A' for Active; 'I' for Inactive)
REMARK    1  A    between atoms: _1  and  _3
REMARK    2  A    between atoms: _3  and  _4
REMARK    3  A    between atoms: _3  and  _6
REMARK    4  A    between atoms: _6  and  _7
REMARK    5  A    between atoms: _7  and  _8
REMARK    6  A    between atoms: _11  and  _13
REMARK    7  A    between atoms: _13  and  _14
REMARK    8  A    between atoms: _13  and  _16
REMARK    9  A    between atoms: _16  and  _17
REMARK   10  A    between atoms: _22  and  _23
REMARK   11  A    between atoms: _25  and  _27
REMARK   12  A    between atoms: _27  and  _28
REMARK   13  A    between atoms: _27  and  _30
REMARK   14  A    between atoms: _30  and  _31
REMARK   15  A    between atoms: _37  and  _39
REMARK   16  A    between atoms: _39  and  _40
REMARK   17  A    between atoms: _39  and  _42
REMARK   18  A    between atoms: _42  and  _43
REMARK   19  A    between atoms: _46  and  _48
REMARK   20  A    between atoms: _48  and  _49
REMARK   21  A    between atoms: _48  and  _51
REMARK   22  A    between atoms: _51  and  _52
REMARK   23  A    between atoms: _55  and  _57
REMARK   24  A    between atoms: _57  and  _58
REMARK   25  A    between atoms: _57  and  _60
REMARK   26  A    between atoms: _60  and  _61
REMARK   27  A    between atoms: _71  and  _73
REMARK   28  A    between atoms: _73  and  _74
REMARK   29  A    between atoms: _73  and  _76
REMARK   30  A    between atoms: _76  and  _77
REMARK   31  A    between atoms: _80  and  _82
REMARK   32  A    between atoms: _82  and  _83
REMARK   33  A    between atoms: _82  and  _85
REMARK   34  A    between atoms: _85  and  _86
REMARK   35  A    between atoms: _86  and  _87
REMARK   36  A    between atoms: _89  and  _91
REMARK   37  A    between atoms: _91  and  _92
REMARK   38  A    between atoms: _91  and  _94
REMARK   39  A    between atoms: _94  and  _95
REMARK   40  A    between atoms: _95  and  _96
REMARK   41  A    between atoms: _98  and  _100
REMARK   42  A    between atoms: _100  and  _101
REMARK   43  A    between atoms: _100  and  _103
REMARK   44  A    between atoms: _106  and  _108
REMARK   45  A    between atoms: _108  and  _109
REMARK   46  A    between atoms: _112  and  _114
REMARK   47  A    between atoms: _114  and  _115
REMARK   48  A    between atoms: _114  and  _117
REMARK   49  A    between atoms: _117  and  _118
REMARK   50  A    between atoms: _123  and  _125
REMARK   51  A    between atoms: _125  and  _126
REMARK   52  A    between atoms: _125  and  _128
REMARK   53  A    between atoms: _128  and  _129
REMARK   54  A    between atoms: _129  and  _130
REMARK   55  A    between atoms: _135  and  _137
REMARK   56  A    between atoms: _137  and  _138
REMARK   57  A    between atoms: _137  and  _140
REMARK   58  A    between atoms: _143  and  _145
REMARK   59  A    between atoms: _145  and  _146
REMARK   60  A    between atoms: _148  and  _150
REMARK   61  A    between atoms: _150  and  _151
REMARK   62  A    between atoms: _150  and  _153
REMARK   63  A    between atoms: _153  and  _154
REMARK   64  A    between atoms: _157  and  _159
REMARK   65  A    between atoms: _159  and  _160
REMARK   66  A    between atoms: _159  and  _162
REMARK   67  A    between atoms: _162  and  _163
REMARK   68  A    between atoms: _166  and  _168
REMARK   69  A    between atoms: _168  and  _169
REMARK   70  A    between atoms: _168  and  _171
REMARK   71  A    between atoms: _171  and  _172
REMARK   72  A    between atoms: _174  and  _176
REMARK   73  A    between atoms: _176  and  _177
REMARK   74  A    between atoms: _176  and  _179
REMARK   75  A    between atoms: _179  and  _180
REMARK   76  A    between atoms: _180  and  _181
REMARK   77  A    between atoms: _181  and  _182
REMARK   78  A    between atoms: _191  and  _193
REMARK   79  A    between atoms: _193  and  _194
REMARK   80  A    between atoms: _193  and  _196
REMARK   81  A    between atoms: _196  and  _197
REMARK   82  A    between atoms: _199  and  _201
REMARK   83  A    between atoms: _201  and  _202
REMARK   84  A    between atoms: _201  and  _204
REMARK   85  A    between atoms: _204  and  _205
REMARK   86  A    between atoms: _208  and  _210
REMARK   87  A    between atoms: _210  and  _211
REMARK   88  A    between atoms: _210  and  _213
REMARK   89  A    between atoms: _213  and  _214
REMARK   90  A    between atoms: _217  and  _219
REMARK   91  A    between atoms: _219  and  _220
REMARK   92  A    between atoms: _219  and  _222
REMARK   93  A    between atoms: _222  and  _223
REMARK   94  A    between atoms: _225  and  _227
REMARK   95  A    between atoms: _227  and  _228
REMARK   96  A    between atoms: _227  and  _230
REMARK   97  A    between atoms: _230  and  _231
REMARK   98  A    between atoms: _236  and  _238
REMARK   99  A    between atoms: _238  and  _239
REMARK  100  A    between atoms: _238  and  _241
REMARK  101  A    between atoms: _241  and  _242
REMARK  102  A    between atoms: _247  and  _248
REMARK  103  A    between atoms: _250  and  _252
REMARK  104  A    between atoms: _252  and  _253
REMARK  105  A    between atoms: _255  and  _257
REMARK  106  A    between atoms: _257  and  _258
REMARK  107  A    between atoms: _257  and  _260
REMARK  108  A    between atoms: _260  and  _261
REMARK  109  A    between atoms: _261  and  _262
REMARK  110  A    between atoms: _265  and  _267
REMARK  111  A    between atoms: _267  and  _268
REMARK  112  A    between atoms: _267  and  _270
REMARK  113  A    between atoms: _270  and  _271
REMARK  114  A    between atoms: _271  and  _272
REMARK  115  A    between atoms: _272  and  _273
REMARK  116  A    between atoms: _273  and  _274
REMARK  117  A    between atoms: _278  and  _280
REMARK  118  A    between atoms: _280  and  _281
REMARK  119  A    between atoms: _280  and  _283
REMARK  120  A    between atoms: _283  and  _284
REMARK  121  A    between atoms: _287  and  _289
REMARK  122  A    between atoms: _289  and  _290
REMARK  123  A    between atoms: _289  and  _292
REMARK  124  A    between atoms: _292  and  _293
REMARK  125  A    between atoms: _298  and  _300
REMARK  126  A    between atoms: _300  and  _301
REMARK  127  A    between atoms: _300  and  _303
REMARK  128  A    between atoms: _303  and  _304
REMARK  129  A    between atoms: _307  and  _309
REMARK  130  A    between atoms: _309  and  _310
REMARK  131  A    between atoms: _309  and  _312
REMARK  132  A    between atoms: _315  and  _317
REMARK  133  A    between atoms: _317  and  _318
REMARK  134  A    between atoms: _317  and  _320
REMARK  135  A    between atoms: _320  and  _321
REMARK  136  A    between atoms: _323  and  _325
REMARK  137  A    between atoms: _325  and  _326
REMARK  138  A    between atoms: _328  and  _330
REMARK  139  A    between atoms: _330  and  _331
REMARK  140  A    between atoms: _330  and  _333
REMARK  141  A    between atoms: _333  and  _334
REMARK                            x       y       z     vdW  Elec       q    Type
REMARK                         _______ _______ _______ _____ _____    ______ ____
ROOT
ATOM      1  CG  TYR A   1       7.313  -4.880   0.044  0.00  0.00    -0.020 A 
ATOM      2  CD2 TYR A   1       8.030  -3.738   0.302  0.00  0.00    -0.001 A 
ATOM      3  CE2 TYR A   1       8.545  -2.945  -0.733  0.00  0.00    +0.036 A 
ATOM      4  CZ  TYR A   1       8.317  -3.338  -2.058  0.00  0.00    +0.134 A 
ATOM      5  CE1 TYR A   1       7.684  -4.527  -2.304  0.00  0.00    +0.036 A 
ATOM      6  CD1 TYR A   1       7.174  -5.259  -1.287  0.00  0.00    -0.001 A 
ENDROOT
BRANCH   4   7
ATOM      7  OH  TYR A   1       8.795  -2.505  -3.057  0.00  0.00    -0.506 OA
ATOM      8  HH  TYR A   1       8.572  -2.890  -3.941  0.00  0.00    +0.292 HD
ENDBRANCH   4   7
BRANCH   1   9
ATOM      9  CB  TYR A   1       6.653  -5.605   1.178  0.00  0.00    +0.051 C 
BRANCH   9  10
ATOM     10  CA  TYR A   1       6.636  -7.103   1.147  0.00  0.00    +0.137 C 
BRANCH  10  11
ATOM     11  N   TYR A   1       5.856  -7.627   2.279  0.00  0.00    -0.239 NA
ATOM     12  H   TYR A   1       6.341  -7.774   3.187  0.00  0.00    +0.142 HD
ENDBRANCH  10  11
BRANCH  10  13
ATOM     13  C   TYR A   1       8.026  -7.731   1.146  0.00  0.00    +0.224 C 
ATOM     14  O   TYR A   1       9.005  -7.064   1.538  0.00  0.00    -0.287 OA
ENDBRANCH  10  13
ENDBRANCH   9  10
ENDBRANCH   1   9
TORSDOF 5
REMARK  Name = ../refined-set-2016/2yln/2yln_pocket.pdb
REMARK  141 active torsions:
REMARK  status: ('A' for Active; 'I' for Inactive)
REMARK    1  A    between atoms: _1  and  _3
REMARK    2  A    between atoms: _3  and  _4
REMARK    3  A    between atoms: _3  and  _6
REMARK    4  A    between atoms: _6  and  _7
REMARK    5  A    between atoms: _7  and  _8
REMARK    6  A    between atoms: _11  and  _13
REMARK    7  A    between atoms: _13  and  _14
REMARK    8  A    between atoms: _13  and  _16
REMARK    9  A    between atoms: _16  and  _17
REMARK   10  A    between atoms: _22  and  _23
REMARK   11  A    between atoms: _25  and  _27
REMARK   12  A    between atoms: _27  and  _28
REMARK   13  A    between atoms: _27  and  _30
REMARK   14  A    between atoms: _30  and  _31
REMARK   15  A    between atoms: _37  and  _39
REMARK   16  A    between atoms: _39  and  _40
REMARK   17  A    between atoms: _39  and  _42
REMARK   18  A    between atoms: _42  and  _43
REMARK   19  A    between atoms: _46  and  _48
REMARK   20  A    between atoms: _48  and  _49
REMARK   21  A    between atoms: _48  and  _51
REMARK   22  A    between atoms: _51  and  _52
REMARK   23  A    between atoms: _55  and  _57
REMARK   24  A    between atoms: _57  and  _58
REMARK   25  A    between atoms: _57  and  _60
REMARK   26  A    between atoms: _60  and  _61
REMARK   27  A    between atoms: _71  and  _73
REMARK   28  A    between atoms: _73  and  _74
REMARK   29  A    between atoms: _73  and  _76
REMARK   30  A    between atoms: _76  and  _77
REMARK   31  A    between atoms: _80  and  _82
REMARK   32  A    between atoms: _82  and  _83
REMARK   33  A    between atoms: _82  and  _85
REMARK   34  A    between atoms: _85  and  _86
REMARK   35  A    between atoms: _86  and  _87
REMARK   36  A    between atoms: _89  and  _91
REMARK   37  A    between atoms: _91  and  _92
REMARK   38  A    between atoms: _91  and  _94
REMARK   39  A    between atoms: _94  and  _95
REMARK   40  A    between atoms: _95  and  _96
REMARK   41  A    between atoms: _98  and  _100
REMARK   42  A    between atoms: _100  and  _101
REMARK   43  A    between atoms: _100  and  _103
REMARK   44  A    between atoms: _106  and  _108
REMARK   45  A    between atoms: _108  and  _109
REMARK   46  A    between atoms: _112  and  _114
REMARK   47  A    between atoms: _114  and  _115
REMARK   48  A    between atoms: _114  and  _117
REMARK   49  A    between atoms: _117  and  _118
REMARK   50  A    between atoms: _123  and  _125
REMARK   51  A    between atoms: _125  and  _126
REMARK   52  A    between atoms: _125  and  _128
REMARK   53  A    between atoms: _128  and  _129
REMARK   54  A    between atoms: _129  and  _130
REMARK   55  A    between atoms: _135  and  _137
REMARK   56  A    between atoms: _137  and  _138
REMARK   57  A    between atoms: _137  and  _140
REMARK   58  A    between atoms: _143  and  _145
REMARK   59  A    between atoms: _145  and  _146
REMARK   60  A    between atoms: _148  and  _150
REMARK   61  A    between atoms: _150  and  _151
REMARK   62  A    between atoms: _150  and  _153
REMARK   63  A    between atoms: _153  and  _154
REMARK   64  A    between atoms: _157  and  _159
REMARK   65  A    between atoms: _159  and  _160
REMARK   66  A    between atoms: _159  and  _162
REMARK   67  A    between atoms: _162  and  _163
REMARK   68  A    between atoms: _166  and  _168
REMARK   69  A    between atoms: _168  and  _169
REMARK   70  A    between atoms: _168  and  _171
REMARK   71  A    between atoms: _171  and  _172
REMARK   72  A    between atoms: _174  and  _176
REMARK   73  A    between atoms: _176  and  _177
REMARK   74  A    between atoms: _176  and  _179
REMARK   75  A    between atoms: _179  and  _180
REMARK   76  A    between atoms: _180  and  _181
REMARK   77  A    between atoms: _181  and  _182
REMARK   78  A    between atoms: _191  and  _193
REMARK   79  A    between atoms: _193  and  _194
REMARK   80  A    between atoms: _193  and  _196
REMARK   81  A    between atoms: _196  and  _197
REMARK   82  A    between atoms: _199  and  _201
REMARK   83  A    between atoms: _201  and  _202
REMARK   84  A    between atoms: _201  and  _204
REMARK   85  A    between atoms: _204  and  _205
REMARK   86  A    between atoms: _208  and  _210
REMARK   87  A    between atoms: _210  and  _211
REMARK   88  A    between atoms: _210  and  _213
REMARK   89  A    between atoms: _213  and  _214
REMARK   90  A    between atoms: _217  and  _219
REMARK   91  A    between atoms: _219  and  _220
REMARK   92  A    between atoms: _219  and  _222
REMARK   93  A    between atoms: _222  and  _223
REMARK   94  A    between atoms: _225  and  _227
REMARK   95  A    between atoms: _227  and  _228
REMARK   96  A    between atoms: _227  and  _230
REMARK   97  A    between atoms: _230  and  _231
REMARK   98  A    between atoms: _236  and  _238
REMARK   99  A    between atoms: _238  and  _239
REMARK  100  A    between atoms: _238  and  _241
REMARK  101  A    between atoms: _241  and  _242
REMARK  102  A    between atoms: _247  and  _248
REMARK  103  A    between atoms: _250  and  _252
REMARK  104  A    between atoms: _252  and  _253
REMARK  105  A    between atoms: _255  and  _257
REMARK  106  A    between atoms: _257  and  _258
REMARK  107  A    between atoms: _257  and  _260
REMARK  108  A    between atoms: _260  and  _261
REMARK  109  A    between atoms: _261  and  _262
REMARK  110  A    between atoms: _265  and  _267
REMARK  111  A    between atoms: _267  and  _268
REMARK  112  A    between atoms: _267  and  _270
REMARK  113  A    between atoms: _270  and  _271
REMARK  114  A    between atoms: _271  and  _272
REMARK  115  A    between atoms: _272  and  _273
REMARK  116  A    between atoms: _273  and  _274
REMARK  117  A    between atoms: _278  and  _280
REMARK  118  A    between atoms: _280  and  _281
REMARK  119  A    between atoms: _280  and  _283
REMARK  120  A    between atoms: _283  and  _284
REMARK  121  A    between atoms: _287  and  _289
REMARK  122  A    between atoms: _289  and  _290
REMARK  123  A    between atoms: _289  and  _292
REMARK  124  A    between atoms: _292  and  _293
REMARK  125  A    between atoms: _298  and  _300
REMARK  126  A    between atoms: _300  and  _301
REMARK  127  A    between atoms: _300  and  _303
REMARK  128  A    between atoms: _303  and  _304
REMARK  129  A    between atoms: _307  and  _309
REMARK  130  A    between atoms: _309  and  _310
REMARK  131  A    between atoms: _309  and  _312
REMARK  132  A    between atoms: _315  and  _317
REMARK  133  A    between atoms: _317  and  _318
REMARK  134  A    between atoms: _317  and  _320
REMARK  135  A    between atoms: _320  and  _321
REMARK  136  A    between atoms: _323  and  _325
REMARK  137  A    between atoms: _325  and  _326
REMARK  138  A    between atoms: _328  and  _330
REMARK  139  A    between atoms: _330  and  _331
REMARK  140  A    between atoms: _330  and  _333
REMARK  141  A    between atoms: _333  and  _334
REMARK                            x       y       z     vdW  Elec       q    Type
REMARK                         _______ _______ _______ _____ _____    ______ ____
ROOT
ATOM      1  C   PHE A   1      11.552  -6.169   4.095  0.00  0.00    +0.239 C 
ATOM      2  O   PHE A   1      12.141  -5.673   5.082  0.00  0.00    -0.274 OA
ATOM      3  N   THR A   2      10.312  -6.661   4.178  0.00  0.00    -0.296 N 
ATOM      4  H   THR A   2       9.873  -7.074   3.330  0.00  0.00    +0.150 HD
ENDROOT
BRANCH   1   5
ATOM      5  CA  PHE A   1      12.191  -6.060   2.712  0.00  0.00    +0.149 C 
BRANCH   5   6
ATOM      6  N   PHE A   1      11.942  -7.235   1.876  0.00  0.00    -0.238 NA
ATOM      7  H   PHE A   1      11.101  -7.237   1.265  0.00  0.00    +0.142 HD
ENDBRANCH   5   6
BRANCH   5   8
ATOM      8  CB  PHE A   1      11.694  -4.796   1.989  0.00  0.00    +0.053 C 
BRANCH   8   9
ATOM      9  CG  PHE A   1      12.416  -4.535   0.719  0.00  0.00    -0.020 A 
ATOM     10  CD2 PHE A   1      13.771  -4.200   0.666  0.00  0.00    -0.004 A 
ATOM     11  CE2 PHE A   1      14.418  -3.899  -0.487  0.00  0.00    -0.000 A 
ATOM     12  CZ  PHE A   1      13.782  -3.870  -1.692  0.00  0.00    -0.000 A 
ATOM     13  CE1 PHE A   1      12.462  -4.237  -1.717  0.00  0.00    -0.000 A 
ATOM     14  CD1 PHE A   1      11.802  -4.568  -0.542  0.00  0.00    -0.004 A 
ENDBRANCH   8   9
ENDBRANCH   5   8
ENDBRANCH   1   5
BRANCH   3  15
ATOM     15  CA  THR A   2       9.559  -6.634   5.425  0.00  0.00    +0.164 C 
BRANCH  15  16
ATOM     16  CB  THR A   2       9.024  -5.236   5.707  0.00  0.00    +0.136 C 
ATOM     17  CG2 THR A   2       8.371  -4.536   4.583  0.00  0.00    +0.034 C 
BRANCH  16  18
ATOM     18  OG1 THR A   2       8.091  -5.347   6.803  0.00  0.00    -0.382 OA
ATOM     19  HG1 THR A   2       7.723  -4.452   7.013  0.00  0.00    +0.210 HD
ENDBRANCH  16  18
ENDBRANCH  15  16
BRANCH  15  20
ATOM     20  C   THR A   2       8.456  -7.681   5.234  0.00  0.00    +0.229 C 
ATOM     21  O   THR A   2       7.495  -7.445   4.484  0.00  0.00    -0.286 OA
ENDBRANCH  15  20
ENDBRANCH   3  15
TORSDOF 8
REMARK  Name = ../refined-set-2016/2yln/2yln_pocket.pdb
REMARK  141 active torsions:
REMARK  status: ('A' for Active; 'I' for Inactive)
REMARK    1  A    between atoms: _1  and  _3
REMARK    2  A    between atoms: _3  and  _4
REMARK    3  A    between atoms: _3  and  _6
REMARK    4  A    between atoms: _6  and  _7
REMARK    5  A    between atoms: _7  and  _8
REMARK    6  A    between atoms: _11  and  _13
REMARK    7  A    between atoms: _13  and  _14
REMARK    8  A    between atoms: _13  and  _16
REMARK    9  A    between atoms: _16  and  _17
REMARK   10  A    between atoms: _22  and  _23
REMARK   11  A    between atoms: _25  and  _27
REMARK   12  A    between atoms: _27  and  _28
REMARK   13  A    between atoms: _27  and  _30
REMARK   14  A    between atoms: _30  and  _31
REMARK   15  A    between atoms: _37  and  _39
REMARK   16  A    between atoms: _39  and  _40
REMARK   17  A    between atoms: _39  and  _42
REMARK   18  A    between atoms: _42  and  _43
REMARK   19  A    between atoms: _46  and  _48
REMARK   20  A    between atoms: _48  and  _49
REMARK   21  A    between atoms: _48  and  _51
REMARK   22  A    between atoms: _51  and  _52
REMARK   23  A    between atoms: _55  and  _57
REMARK   24  A    between atoms: _57  and  _58
REMARK   25  A    between atoms: _57  and  _60
REMARK   26  A    between atoms: _60  and  _61
REMARK   27  A    between atoms: _71  and  _73
REMARK   28  A    between atoms: _73  and  _74
REMARK   29  A    between atoms: _73  and  _76
REMARK   30  A    between atoms: _76  and  _77
REMARK   31  A    between atoms: _80  and  _82
REMARK   32  A    between atoms: _82  and  _83
REMARK   33  A    between atoms: _82  and  _85
REMARK   34  A    between atoms: _85  and  _86
REMARK   35  A    between atoms: _86  and  _87
REMARK   36  A    between atoms: _89  and  _91
REMARK   37  A    between atoms: _91  and  _92
REMARK   38  A    between atoms: _91  and  _94
REMARK   39  A    between atoms: _94  and  _95
REMARK   40  A    between atoms: _95  and  _96
REMARK   41  A    between atoms: _98  and  _100
REMARK   42  A    between atoms: _100  and  _101
REMARK   43  A    between atoms: _100  and  _103
REMARK   44  A    between atoms: _106  and  _108
REMARK   45  A    between atoms: _108  and  _109
REMARK   46  A    between atoms: _112  and  _114
REMARK   47  A    between atoms: _114  and  _115
REMARK   48  A    between atoms: _114  and  _117
REMARK   49  A    between atoms: _117  and  _118
REMARK   50  A    between atoms: _123  and  _125
REMARK   51  A    between atoms: _125  and  _126
REMARK   52  A    between atoms: _125  and  _128
REMARK   53  A    between atoms: _128  and  _129
REMARK   54  A    between atoms: _129  and  _130
REMARK   55  A    between atoms: _135  and  _137
REMARK   56  A    between atoms: _137  and  _138
REMARK   57  A    between atoms: _137  and  _140
REMARK   58  A    between atoms: _143  and  _145
REMARK   59  A    between atoms: _145  and  _146
REMARK   60  A    between atoms: _148  and  _150
REMARK   61  A    between atoms: _150  and  _151
REMARK   62  A    between atoms: _150  and  _153
REMARK   63  A    between atoms: _153  and  _154
REMARK   64  A    between atoms: _157  and  _159
REMARK   65  A    between atoms: _159  and  _160
REMARK   66  A    between atoms: _159  and  _162
REMARK   67  A    between atoms: _162  and  _163
REMARK   68  A    between atoms: _166  and  _168
REMARK   69  A    between atoms: _168  and  _169
REMARK   70  A    between atoms: _168  and  _171
REMARK   71  A    between atoms: _171  and  _172
REMARK   72  A    between atoms: _174  and  _176
REMARK   73  A    between atoms: _176  and  _177
REMARK   74  A    between atoms: _176  and  _179
REMARK   75  A    between atoms: _179  and  _180
REMARK   76  A    between atoms: _180  and  _181
REMARK   77  A    between atoms: _181  and  _182
REMARK   78  A    between atoms: _191  and  _193
REMARK   79  A    between atoms: _193  and  _194
REMARK   80  A    between atoms: _193  and  _196
REMARK   81  A    between atoms: _196  and  _197
REMARK   82  A    between atoms: _199  and  _201
REMARK   83  A    between atoms: _201  and  _202
REMARK   84  A    between atoms: _201  and  _204
REMARK   85  A    between atoms: _204  and  _205
REMARK   86  A    between atoms: _208  and  _210
REMARK   87  A    between atoms: _210  and  _211
REMARK   88  A    between atoms: _210  and  _213
REMARK   89  A    between atoms: _213  and  _214
REMARK   90  A    between atoms: _217  and  _219
REMARK   91  A    between atoms: _219  and  _220
REMARK   92  A    between atoms: _219  and  _222
REMARK   93  A    between atoms: _222  and  _223
REMARK   94  A    between atoms: _225  and  _227
REMARK   95  A    between atoms: _227  and  _228
REMARK   96  A    between atoms: _227  and  _230
REMARK   97  A    between atoms: _230  and  _231
REMARK   98  A    between atoms: _236  and  _238
REMARK   99  A    between atoms: _238  and  _239
REMARK  100  A    between atoms: _238  and  _241
REMARK  101  A    between atoms: _241  and  _242
REMARK  102  A    between atoms: _247  and  _248
REMARK  103  A    between atoms: _250  and  _252
REMARK  104  A    between atoms: _252  and  _253
REMARK  105  A    between atoms: _255  and  _257
REMARK  106  A    between atoms: _257  and  _258
REMARK  107  A    between atoms: _257  and  _260
REMARK  108  A    between atoms: _260  and  _261
REMARK  109  A    between atoms: _261  and  _262
REMARK  110  A    between atoms: _265  and  _267
REMARK  111  A    between atoms: _267  and  _268
REMARK  112  A    between atoms: _267  and  _270
REMARK  113  A    between atoms: _270  and  _271
REMARK  114  A    between atoms: _271  and  _272
REMARK  115  A    between atoms: _272  and  _273
REMARK  116  A    between atoms: _273  and  _274
REMARK  117  A    between atoms: _278  and  _280
REMARK  118  A    between atoms: _280  and  _281
REMARK  119  A    between atoms: _280  and  _283
REMARK  120  A    between atoms: _283  and  _284
REMARK  121  A    between atoms: _287  and  _289
REMARK  122  A    between atoms: _289  and  _290
REMARK  123  A    between atoms: _289  and  _292
REMARK  124  A    between atoms: _292  and  _293
REMARK  125  A    between atoms: _298  and  _300
REMARK  126  A    between atoms: _300  and  _301
REMARK  127  A    between atoms: _300  and  _303
REMARK  128  A    between atoms: _303  and  _304
REMARK  129  A    between atoms: _307  and  _309
REMARK  130  A    between atoms: _309  and  _310
REMARK  131  A    between atoms: _309  and  _312
REMARK  132  A    between atoms: _315  and  _317
REMARK  133  A    between atoms: _317  and  _318
REMARK  134  A    between atoms: _317  and  _320
REMARK  135  A    between atoms: _320  and  _321
REMARK  136  A    between atoms: _323  and  _325
REMARK  137  A    between atoms: _325  and  _326
REMARK  138  A    between atoms: _328  and  _330
REMARK  139  A    between atoms: _330  and  _331
REMARK  140  A    between atoms: _330  and  _333
REMARK  141  A    between atoms: _333  and  _334
REMARK                            x       y       z     vdW  Elec       q    Type
REMARK                         _______ _______ _______ _____ _____    ______ ____
ROOT
ATOM      1  CA  ASP A   1      14.388  -3.213   6.540  0.00  0.00    +0.144 C 
ENDROOT
BRANCH   1   2
ATOM      2  N   ASP A   1      14.677  -4.434   5.804  0.00  0.00    -0.239 NA
ATOM      3  H   ASP A   1      14.020  -4.765   5.069  0.00  0.00    +0.142 HD
ENDBRANCH   1   2
BRANCH   1   4
ATOM      4  C   ASP A   1      14.157  -3.473   8.039  0.00  0.00    +0.225 C 
ATOM      5  O   ASP A   1      14.544  -2.700   8.905  0.00  0.00    -0.287 OA
ENDBRANCH   1   4
BRANCH   1   6
ATOM      6  CB  ASP A   1      13.172  -2.463   6.001  0.00  0.00    +0.139 C 
BRANCH   6   7
ATOM      7  CG  ASP A   1      13.369  -1.898   4.625  0.00  0.00    +0.367 C 
ATOM      8  OD2 ASP A   1      13.127  -0.664   4.437  0.00  0.00    -0.246 OA
ATOM      9  OD1 ASP A   1      13.805  -2.613   3.692  0.00  0.00    -0.246 OA
ENDBRANCH   6   7
ENDBRANCH   1   6
TORSDOF 4
REMARK  Name = ../refined-set-2016/2yln/2yln_pocket.pdb
REMARK  141 active torsions:
REMARK  status: ('A' for Active; 'I' for Inactive)
REMARK    1  A    between atoms: _1  and  _3
REMARK    2  A    between atoms: _3  and  _4
REMARK    3  A    between atoms: _3  and  _6
REMARK    4  A    between atoms: _6  and  _7
REMARK    5  A    between atoms: _7  and  _8
REMARK    6  A    between atoms: _11  and  _13
REMARK    7  A    between atoms: _13  and  _14
REMARK    8  A    between atoms: _13  and  _16
REMARK    9  A    between atoms: _16  and  _17
REMARK   10  A    between atoms: _22  and  _23
REMARK   11  A    between atoms: _25  and  _27
REMARK   12  A    between atoms: _27  and  _28
REMARK   13  A    between atoms: _27  and  _30
REMARK   14  A    between atoms: _30  and  _31
REMARK   15  A    between atoms: _37  and  _39
REMARK   16  A    between atoms: _39  and  _40
REMARK   17  A    between atoms: _39  and  _42
REMARK   18  A    between atoms: _42  and  _43
REMARK   19  A    between atoms: _46  and  _48
REMARK   20  A    between atoms: _48  and  _49
REMARK   21  A    between atoms: _48  and  _51
REMARK   22  A    between atoms: _51  and  _52
REMARK   23  A    between atoms: _55  and  _57
REMARK   24  A    between atoms: _57  and  _58
REMARK   25  A    between atoms: _57  and  _60
REMARK   26  A    between atoms: _60  and  _61
REMARK   27  A    between atoms: _71  and  _73
REMARK   28  A    between atoms: _73  and  _74
REMARK   29  A    between atoms: _73  and  _76
REMARK   30  A    between atoms: _76  and  _77
REMARK   31  A    between atoms: _80  and  _82
REMARK   32  A    between atoms: _82  and  _83
REMARK   33  A    between atoms: _82  and  _85
REMARK   34  A    between atoms: _85  and  _86
REMARK   35  A    between atoms: _86  and  _87
REMARK   36  A    between atoms: _89  and  _91
REMARK   37  A    between atoms: _91  and  _92
REMARK   38  A    between atoms: _91  and  _94
REMARK   39  A    between atoms: _94  and  _95
REMARK   40  A    between atoms: _95  and  _96
REMARK   41  A    between atoms: _98  and  _100
REMARK   42  A    between atoms: _100  and  _101
REMARK   43  A    between atoms: _100  and  _103
REMARK   44  A    between atoms: _106  and  _108
REMARK   45  A    between atoms: _108  and  _109
REMARK   46  A    between atoms: _112  and  _114
REMARK   47  A    between atoms: _114  and  _115
REMARK   48  A    between atoms: _114  and  _117
REMARK   49  A    between atoms: _117  and  _118
REMARK   50  A    between atoms: _123  and  _125
REMARK   51  A    between atoms: _125  and  _126
REMARK   52  A    between atoms: _125  and  _128
REMARK   53  A    between atoms: _128  and  _129
REMARK   54  A    between atoms: _129  and  _130
REMARK   55  A    between atoms: _135  and  _137
REMARK   56  A    between atoms: _137  and  _138
REMARK   57  A    between atoms: _137  and  _140
REMARK   58  A    between atoms: _143  and  _145
REMARK   59  A    between atoms: _145  and  _146
REMARK   60  A    between atoms: _148  and  _150
REMARK   61  A    between atoms: _150  and  _151
REMARK   62  A    between atoms: _150  and  _153
REMARK   63  A    between atoms: _153  and  _154
REMARK   64  A    between atoms: _157  and  _159
REMARK   65  A    between atoms: _159  and  _160
REMARK   66  A    between atoms: _159  and  _162
REMARK   67  A    between atoms: _162  and  _163
REMARK   68  A    between atoms: _166  and  _168
REMARK   69  A    between atoms: _168  and  _169
REMARK   70  A    between atoms: _168  and  _171
REMARK   71  A    between atoms: _171  and  _172
REMARK   72  A    between atoms: _174  and  _176
REMARK   73  A    between atoms: _176  and  _177
REMARK   74  A    between atoms: _176  and  _179
REMARK   75  A    between atoms: _179  and  _180
REMARK   76  A    between atoms: _180  and  _181
REMARK   77  A    between atoms: _181  and  _182
REMARK   78  A    between atoms: _191  and  _193
REMARK   79  A    between atoms: _193  and  _194
REMARK   80  A    between atoms: _193  and  _196
REMARK   81  A    between atoms: _196  and  _197
REMARK   82  A    between atoms: _199  and  _201
REMARK   83  A    between atoms: _201  and  _202
REMARK   84  A    between atoms: _201  and  _204
REMARK   85  A    between atoms: _204  and  _205
REMARK   86  A    between atoms: _208  and  _210
REMARK   87  A    between atoms: _210  and  _211
REMARK   88  A    between atoms: _210  and  _213
REMARK   89  A    between atoms: _213  and  _214
REMARK   90  A    between atoms: _217  and  _219
REMARK   91  A    between atoms: _219  and  _220
REMARK   92  A    between atoms: _219  and  _222
REMARK   93  A    between atoms: _222  and  _223
REMARK   94  A    between atoms: _225  and  _227
REMARK   95  A    between atoms: _227  and  _228
REMARK   96  A    between atoms: _227  and  _230
REMARK   97  A    between atoms: _230  and  _231
REMARK   98  A    between atoms: _236  and  _238
REMARK   99  A    between atoms: _238  and  _239
REMARK  100  A    between atoms: _238  and  _241
REMARK  101  A    between atoms: _241  and  _242
REMARK  102  A    between atoms: _247  and  _248
REMARK  103  A    between atoms: _250  and  _252
REMARK  104  A    between atoms: _252  and  _253
REMARK  105  A    between atoms: _255  and  _257
REMARK  106  A    between atoms: _257  and  _258
REMARK  107  A    between atoms: _257  and  _260
REMARK  108  A    between atoms: _260  and  _261
REMARK  109  A    between atoms: _261  and  _262
REMARK  110  A    between atoms: _265  and  _267
REMARK  111  A    between atoms: _267  and  _268
REMARK  112  A    between atoms: _267  and  _270
REMARK  113  A    between atoms: _270  and  _271
REMARK  114  A    between atoms: _271  and  _272
REMARK  115  A    between atoms: _272  and  _273
REMARK  116  A    between atoms: _273  and  _274
REMARK  117  A    between atoms: _278  and  _280
REMARK  118  A    between atoms: _280  and  _281
REMARK  119  A    between atoms: _280  and  _283
REMARK  120  A    between atoms: _283  and  _284
REMARK  121  A    between atoms: _287  and  _289
REMARK  122  A    between atoms: _289  and  _290
REMARK  123  A    between atoms: _289  and  _292
REMARK  124  A    between atoms: _292  and  _293
REMARK  125  A    between atoms: _298  and  _300
REMARK  126  A    between atoms: _300  and  _301
REMARK  127  A    between atoms: _300  and  _303
REMARK  128  A    between atoms: _303  and  _304
REMARK  129  A    between atoms: _307  and  _309
REMARK  130  A    between atoms: _309  and  _310
REMARK  131  A    between atoms: _309  and  _312
REMARK  132  A    between atoms: _315  and  _317
REMARK  133  A    between atoms: _317  and  _318
REMARK  134  A    between atoms: _317  and  _320
REMARK  135  A    between atoms: _320  and  _321
REMARK  136  A    between atoms: _323  and  _325
REMARK  137  A    between atoms: _325  and  _326
REMARK  138  A    between atoms: _328  and  _330
REMARK  139  A    between atoms: _330  and  _331
REMARK  140  A    between atoms: _330  and  _333
REMARK  141  A    between atoms: _333  and  _334
REMARK                            x       y       z     vdW  Elec       q    Type
REMARK                         _______ _______ _______ _____ _____    ______ ____
ROOT
ATOM      1  CA  TRP A   1       0.928   0.673   2.726  0.00  0.00    +0.149 C 
ENDROOT
BRANCH   1   2
ATOM      2  C   TRP A   1       0.186   1.985   2.630  0.00  0.00    +0.239 C 
ATOM      3  O   TRP A   1       0.709   3.051   2.945  0.00  0.00    -0.274 OA
ATOM      4  N   ASP A   2      -1.077   1.965   2.175  0.00  0.00    -0.298 N 
ATOM      5  H   ASP A   2      -1.545   1.058   1.977  0.00  0.00    +0.150 HD
BRANCH   4   6
ATOM      6  CA  ASP A   2      -1.782   3.201   1.962  0.00  0.00    +0.148 C 
BRANCH   6   7
ATOM      7  C   ASP A   2      -2.163   3.921   3.196  0.00  0.00    +0.227 C 
ATOM      8  O   ASP A   2      -2.642   5.069   3.133  0.00  0.00    -0.286 OA
ENDBRANCH   6   7
BRANCH   6   9
ATOM      9  CB  ASP A   2      -2.943   2.986   0.976  0.00  0.00    +0.142 C 
BRANCH   9  10
ATOM     10  CG  ASP A   2      -2.480   2.794  -0.496  0.00  0.00    +0.367 C 
ATOM     11  OD2 ASP A   2      -1.469   3.355  -0.865  0.00  0.00    -0.246 OA
ATOM     12  OD1 ASP A   2      -3.125   2.114  -1.229  0.00  0.00    -0.246 OA
ENDBRANCH   9  10
ENDBRANCH   6   9
ENDBRANCH   4   6
ENDBRANCH   1   2
BRANCH   1  13
ATOM     13  N   TRP A   1       0.136  -0.371   3.348  0.00  0.00    -0.238 NA
ATOM     14  H   TRP A   1      -0.009  -1.278   2.860  0.00  0.00    +0.142 HD
ENDBRANCH   1  13
BRANCH   1  15
ATOM     15  CB  TRP A   1       1.501   0.283   1.321  0.00  0.00    +0.054 C 
BRANCH  15  16
ATOM     16  CG  TRP A   1       2.198   1.493   0.839  0.00  0.00    -0.002 A 
ATOM     17  CD2 TRP A   1       3.361   2.080   1.411  0.00  0.00    +0.013 A 
ATOM     18  CE3 TRP A   1       4.322   1.619   2.344  0.00  0.00    +0.001 A 
ATOM     19  CZ3 TRP A   1       5.283   2.484   2.775  0.00  0.00    +0.000 A 
ATOM     20  CH2 TRP A   1       5.300   3.768   2.364  0.00  0.00    +0.001 A 
ATOM     21  CZ2 TRP A   1       4.407   4.249   1.425  0.00  0.00    +0.017 A 
ATOM     22  CE2 TRP A   1       3.461   3.389   0.978  0.00  0.00    +0.056 A 
ATOM     23  NE1 TRP A   1       2.442   3.615   0.101  0.00  0.00    -0.352 N 
ATOM     24  HE1 TRP A   1       2.281   4.487  -0.443  0.00  0.00    +0.166 HD
ATOM     25  CD1 TRP A   1       1.678   2.500   0.067  0.00  0.00    +0.068 A 
ENDBRANCH  15  16
ENDBRANCH   1  15
TORSDOF 8
REMARK  Name = ../refined-set-2016/2yln/2yln_pocket.pdb
REMARK  141 active torsions:
REMARK  status: ('A' for Active; 'I' for Inactive)
REMARK    1  A    between atoms: _1  and  _3
REMARK    2  A    between atoms: _3  and  _4
REMARK    3  A    between atoms: _3  and  _6
REMARK    4  A    between atoms: _6  and  _7
REMARK    5  A    between atoms: _7  and  _8
REMARK    6  A    between atoms: _11  and  _13
REMARK    7  A    between atoms: _13  and  _14
REMARK    8  A    between atoms: _13  and  _16
REMARK    9  A    between atoms: _16  and  _17
REMARK   10  A    between atoms: _22  and  _23
REMARK   11  A    between atoms: _25  and  _27
REMARK   12  A    between atoms: _27  and  _28
REMARK   13  A    between atoms: _27  and  _30
REMARK   14  A    between atoms: _30  and  _31
REMARK   15  A    between atoms: _37  and  _39
REMARK   16  A    between atoms: _39  and  _40
REMARK   17  A    between atoms: _39  and  _42
REMARK   18  A    between atoms: _42  and  _43
REMARK   19  A    between atoms: _46  and  _48
REMARK   20  A    between atoms: _48  and  _49
REMARK   21  A    between atoms: _48  and  _51
REMARK   22  A    between atoms: _51  and  _52
REMARK   23  A    between atoms: _55  and  _57
REMARK   24  A    between atoms: _57  and  _58
REMARK   25  A    between atoms: _57  and  _60
REMARK   26  A    between atoms: _60  and  _61
REMARK   27  A    between atoms: _71  and  _73
REMARK   28  A    between atoms: _73  and  _74
REMARK   29  A    between atoms: _73  and  _76
REMARK   30  A    between atoms: _76  and  _77
REMARK   31  A    between atoms: _80  and  _82
REMARK   32  A    between atoms: _82  and  _83
REMARK   33  A    between atoms: _82  and  _85
REMARK   34  A    between atoms: _85  and  _86
REMARK   35  A    between atoms: _86  and  _87
REMARK   36  A    between atoms: _89  and  _91
REMARK   37  A    between atoms: _91  and  _92
REMARK   38  A    between atoms: _91  and  _94
REMARK   39  A    between atoms: _94  and  _95
REMARK   40  A    between atoms: _95  and  _96
REMARK   41  A    between atoms: _98  and  _100
REMARK   42  A    between atoms: _100  and  _101
REMARK   43  A    between atoms: _100  and  _103
REMARK   44  A    between atoms: _106  and  _108
REMARK   45  A    between atoms: _108  and  _109
REMARK   46  A    between atoms: _112  and  _114
REMARK   47  A    between atoms: _114  and  _115
REMARK   48  A    between atoms: _114  and  _117
REMARK   49  A    between atoms: _117  and  _118
REMARK   50  A    between atoms: _123  and  _125
REMARK   51  A    between atoms: _125  and  _126
REMARK   52  A    between atoms: _125  and  _128
REMARK   53  A    between atoms: _128  and  _129
REMARK   54  A    between atoms: _129  and  _130
REMARK   55  A    between atoms: _135  and  _137
REMARK   56  A    between atoms: _137  and  _138
REMARK   57  A    between atoms: _137  and  _140
REMARK   58  A    between atoms: _143  and  _145
REMARK   59  A    between atoms: _145  and  _146
REMARK   60  A    between atoms: _148  and  _150
REMARK   61  A    between atoms: _150  and  _151
REMARK   62  A    between atoms: _150  and  _153
REMARK   63  A    between atoms: _153  and  _154
REMARK   64  A    between atoms: _157  and  _159
REMARK   65  A    between atoms: _159  and  _160
REMARK   66  A    between atoms: _159  and  _162
REMARK   67  A    between atoms: _162  and  _163
REMARK   68  A    between atoms: _166  and  _168
REMARK   69  A    between atoms: _168  and  _169
REMARK   70  A    between atoms: _168  and  _171
REMARK   71  A    between atoms: _171  and  _172
REMARK   72  A    between atoms: _174  and  _176
REMARK   73  A    between atoms: _176  and  _177
REMARK   74  A    between atoms: _176  and  _179
REMARK   75  A    between atoms: _179  and  _180
REMARK   76  A    between atoms: _180  and  _181
REMARK   77  A    between atoms: _181  and  _182
REMARK   78  A    between atoms: _191  and  _193
REMARK   79  A    between atoms: _193  and  _194
REMARK   80  A    between atoms: _193  and  _196
REMARK   81  A    between atoms: _196  and  _197
REMARK   82  A    between atoms: _199  and  _201
REMARK   83  A    between atoms: _201  and  _202
REMARK   84  A    between atoms: _201  and  _204
REMARK   85  A    between atoms: _204  and  _205
REMARK   86  A    between atoms: _208  and  _210
REMARK   87  A    between atoms: _210  and  _211
REMARK   88  A    between atoms: _210  and  _213
REMARK   89  A    between atoms: _213  and  _214
REMARK   90  A    between atoms: _217  and  _219
REMARK   91  A    between atoms: _219  and  _220
REMARK   92  A    between atoms: _219  and  _222
REMARK   93  A    between atoms: _222  and  _223
REMARK   94  A    between atoms: _225  and  _227
REMARK   95  A    between atoms: _227  and  _228
REMARK   96  A    between atoms: _227  and  _230
REMARK   97  A    between atoms: _230  and  _231
REMARK   98  A    between atoms: _236  and  _238
REMARK   99  A    between atoms: _238  and  _239
REMARK  100  A    between atoms: _238  and  _241
REMARK  101  A    between atoms: _241  and  _242
REMARK  102  A    between atoms: _247  and  _248
REMARK  103  A    between atoms: _250  and  _252
REMARK  104  A    between atoms: _252  and  _253
REMARK  105  A    between atoms: _255  and  _257
REMARK  106  A    between atoms: _257  and  _258
REMARK  107  A    between atoms: _257  and  _260
REMARK  108  A    between atoms: _260  and  _261
REMARK  109  A    between atoms: _261  and  _262
REMARK  110  A    between atoms: _265  and  _267
REMARK  111  A    between atoms: _267  and  _268
REMARK  112  A    between atoms: _267  and  _270
REMARK  113  A    between atoms: _270  and  _271
REMARK  114  A    between atoms: _271  and  _272
REMARK  115  A    between atoms: _272  and  _273
REMARK  116  A    between atoms: _273  and  _274
REMARK  117  A    between atoms: _278  and  _280
REMARK  118  A    between atoms: _280  and  _281
REMARK  119  A    between atoms: _280  and  _283
REMARK  120  A    between atoms: _283  and  _284
REMARK  121  A    between atoms: _287  and  _289
REMARK  122  A    between atoms: _289  and  _290
REMARK  123  A    between atoms: _289  and  _292
REMARK  124  A    between atoms: _292  and  _293
REMARK  125  A    between atoms: _298  and  _300
REMARK  126  A    between atoms: _300  and  _301
REMARK  127  A    between atoms: _300  and  _303
REMARK  128  A    between atoms: _303  and  _304
REMARK  129  A    between atoms: _307  and  _309
REMARK  130  A    between atoms: _309  and  _310
REMARK  131  A    between atoms: _309  and  _312
REMARK  132  A    between atoms: _315  and  _317
REMARK  133  A    between atoms: _317  and  _318
REMARK  134  A    between atoms: _317  and  _320
REMARK  135  A    between atoms: _320  and  _321
REMARK  136  A    between atoms: _323  and  _325
REMARK  137  A    between atoms: _325  and  _326
REMARK  138  A    between atoms: _328  and  _330
REMARK  139  A    between atoms: _330  and  _331
REMARK  140  A    between atoms: _330  and  _333
REMARK  141  A    between atoms: _333  and  _334
REMARK                            x       y       z     vdW  Elec       q    Type
REMARK                         _______ _______ _______ _____ _____    ______ ____
ROOT
ATOM      1  C   MET A   1       2.147   5.615   6.570  0.00  0.00    +0.238 C 
ATOM      2  O   MET A   1       2.453   5.960   7.704  0.00  0.00    -0.274 OA
ATOM      3  N   MET A   2       2.227   6.441   5.532  0.00  0.00    -0.298 N 
ATOM      4  H   MET A   2       1.929   6.124   4.587  0.00  0.00    +0.150 HD
ENDROOT
BRANCH   1   5
ATOM      5  CA  MET A   1       1.719   4.185   6.271  0.00  0.00    +0.146 C 
BRANCH   5   6
ATOM      6  N   MET A   1       0.412   4.085   5.619  0.00  0.00    -0.238 NA
ATOM      7  H   MET A   1       0.350   3.752   4.636  0.00  0.00    +0.142 HD
ENDBRANCH   5   6
BRANCH   5   8
ATOM      8  CB  MET A   1       2.765   3.461   5.441  0.00  0.00    +0.038 C 
BRANCH   8   9
ATOM      9  CG  MET A   1       4.080   3.296   6.170  0.00  0.00    +0.060 C 
BRANCH   9  10
ATOM     10  SD  MET A   1       4.027   1.986   7.455  0.00  0.00    -0.139 S 
ATOM     11  CE  MET A   1       3.982   0.528   6.376  0.00  0.00    +0.069 C 
ENDBRANCH   9  10
ENDBRANCH   8   9
ENDBRANCH   5   8
ENDBRANCH   1   5
BRANCH   3  12
ATOM     12  CA  MET A   2       2.737   7.799   5.726  0.00  0.00    +0.138 C 
BRANCH  12  13
ATOM     13  C   MET A   2       1.718   8.666   6.435  0.00  0.00    +0.227 C 
ATOM     14  O   MET A   2       2.096   9.488   7.261  0.00  0.00    -0.286 OA
ENDBRANCH  12  13
BRANCH  12  15
ATOM     15  CB  MET A   2       3.234   8.402   4.398  0.00  0.00    +0.039 C 
BRANCH  15  16
ATOM     16  CG  MET A   2       4.273   7.546   3.708  0.00  0.00    +0.060 C 
BRANCH  16  17
ATOM     17  SD  MET A   2       5.647   6.924   4.747  0.00  0.00    -0.139 S 
ATOM     18  CE  MET A   2       6.482   8.426   5.168  0.00  0.00    +0.069 C 
ENDBRANCH  16  17
ENDBRANCH  15  16
ENDBRANCH  12  15
ENDBRANCH   3  12
TORSDOF 10
REMARK  Name = ../refined-set-2016/2yln/2yln_pocket.pdb
REMARK  141 active torsions:
REMARK  status: ('A' for Active; 'I' for Inactive)
REMARK    1  A    between atoms: _1  and  _3
REMARK    2  A    between atoms: _3  and  _4
REMARK    3  A    between atoms: _3  and  _6
REMARK    4  A    between atoms: _6  and  _7
REMARK    5  A    between atoms: _7  and  _8
REMARK    6  A    between atoms: _11  and  _13
REMARK    7  A    between atoms: _13  and  _14
REMARK    8  A    between atoms: _13  and  _16
REMARK    9  A    between atoms: _16  and  _17
REMARK   10  A    between atoms: _22  and  _23
REMARK   11  A    between atoms: _25  and  _27
REMARK   12  A    between atoms: _27  and  _28
REMARK   13  A    between atoms: _27  and  _30
REMARK   14  A    between atoms: _30  and  _31
REMARK   15  A    between atoms: _37  and  _39
REMARK   16  A    between atoms: _39  and  _40
REMARK   17  A    between atoms: _39  and  _42
REMARK   18  A    between atoms: _42  and  _43
REMARK   19  A    between atoms: _46  and  _48
REMARK   20  A    between atoms: _48  and  _49
REMARK   21  A    between atoms: _48  and  _51
REMARK   22  A    between atoms: _51  and  _52
REMARK   23  A    between atoms: _55  and  _57
REMARK   24  A    between atoms: _57  and  _58
REMARK   25  A    between atoms: _57  and  _60
REMARK   26  A    between atoms: _60  and  _61
REMARK   27  A    between atoms: _71  and  _73
REMARK   28  A    between atoms: _73  and  _74
REMARK   29  A    between atoms: _73  and  _76
REMARK   30  A    between atoms: _76  and  _77
REMARK   31  A    between atoms: _80  and  _82
REMARK   32  A    between atoms: _82  and  _83
REMARK   33  A    between atoms: _82  and  _85
REMARK   34  A    between atoms: _85  and  _86
REMARK   35  A    between atoms: _86  and  _87
REMARK   36  A    between atoms: _89  and  _91
REMARK   37  A    between atoms: _91  and  _92
REMARK   38  A    between atoms: _91  and  _94
REMARK   39  A    between atoms: _94  and  _95
REMARK   40  A    between atoms: _95  and  _96
REMARK   41  A    between atoms: _98  and  _100
REMARK   42  A    between atoms: _100  and  _101
REMARK   43  A    between atoms: _100  and  _103
REMARK   44  A    between atoms: _106  and  _108
REMARK   45  A    between atoms: _108  and  _109
REMARK   46  A    between atoms: _112  and  _114
REMARK   47  A    between atoms: _114  and  _115
REMARK   48  A    between atoms: _114  and  _117
REMARK   49  A    between atoms: _117  and  _118
REMARK   50  A    between atoms: _123  and  _125
REMARK   51  A    between atoms: _125  and  _126
REMARK   52  A    between atoms: _125  and  _128
REMARK   53  A    between atoms: _128  and  _129
REMARK   54  A    between atoms: _129  and  _130
REMARK   55  A    between atoms: _135  and  _137
REMARK   56  A    between atoms: _137  and  _138
REMARK   57  A    between atoms: _137  and  _140
REMARK   58  A    between atoms: _143  and  _145
REMARK   59  A    between atoms: _145  and  _146
REMARK   60  A    between atoms: _148  and  _150
REMARK   61  A    between atoms: _150  and  _151
REMARK   62  A    between atoms: _150  and  _153
REMARK   63  A    between atoms: _153  and  _154
REMARK   64  A    between atoms: _157  and  _159
REMARK   65  A    between atoms: _159  and  _160
REMARK   66  A    between atoms: _159  and  _162
REMARK   67  A    between atoms: _162  and  _163
REMARK   68  A    between atoms: _166  and  _168
REMARK   69  A    between atoms: _168  and  _169
REMARK   70  A    between atoms: _168  and  _171
REMARK   71  A    between atoms: _171  and  _172
REMARK   72  A    between atoms: _174  and  _176
REMARK   73  A    between atoms: _176  and  _177
REMARK   74  A    between atoms: _176  and  _179
REMARK   75  A    between atoms: _179  and  _180
REMARK   76  A    between atoms: _180  and  _181
REMARK   77  A    between atoms: _181  and  _182
REMARK   78  A    between atoms: _191  and  _193
REMARK   79  A    between atoms: _193  and  _194
REMARK   80  A    between atoms: _193  and  _196
REMARK   81  A    between atoms: _196  and  _197
REMARK   82  A    between atoms: _199  and  _201
REMARK   83  A    between atoms: _201  and  _202
REMARK   84  A    between atoms: _201  and  _204
REMARK   85  A    between atoms: _204  and  _205
REMARK   86  A    between atoms: _208  and  _210
REMARK   87  A    between atoms: _210  and  _211
REMARK   88  A    between atoms: _210  and  _213
REMARK   89  A    between atoms: _213  and  _214
REMARK   90  A    between atoms: _217  and  _219
REMARK   91  A    between atoms: _219  and  _220
REMARK   92  A    between atoms: _219  and  _222
REMARK   93  A    between atoms: _222  and  _223
REMARK   94  A    between atoms: _225  and  _227
REMARK   95  A    between atoms: _227  and  _228
REMARK   96  A    between atoms: _227  and  _230
REMARK   97  A    between atoms: _230  and  _231
REMARK   98  A    between atoms: _236  and  _238
REMARK   99  A    between atoms: _238  and  _239
REMARK  100  A    between atoms: _238  and  _241
REMARK  101  A    between atoms: _241  and  _242
REMARK  102  A    between atoms: _247  and  _248
REMARK  103  A    between atoms: _250  and  _252
REMARK  104  A    between atoms: _252  and  _253
REMARK  105  A    between atoms: _255  and  _257
REMARK  106  A    between atoms: _257  and  _258
REMARK  107  A    between atoms: _257  and  _260
REMARK  108  A    between atoms: _260  and  _261
REMARK  109  A    between atoms: _261  and  _262
REMARK  110  A    between atoms: _265  and  _267
REMARK  111  A    between atoms: _267  and  _268
REMARK  112  A    between atoms: _267  and  _270
REMARK  113  A    between atoms: _270  and  _271
REMARK  114  A    between atoms: _271  and  _272
REMARK  115  A    between atoms: _272  and  _273
REMARK  116  A    between atoms: _273  and  _274
REMARK  117  A    between atoms: _278  and  _280
REMARK  118  A    between atoms: _280  and  _281
REMARK  119  A    between atoms: _280  and  _283
REMARK  120  A    between atoms: _283  and  _284
REMARK  121  A    between atoms: _287  and  _289
REMARK  122  A    between atoms: _289  and  _290
REMARK  123  A    between atoms: _289  and  _292
REMARK  124  A    between atoms: _292  and  _293
REMARK  125  A    between atoms: _298  and  _300
REMARK  126  A    between atoms: _300  and  _301
REMARK  127  A    between atoms: _300  and  _303
REMARK  128  A    between atoms: _303  and  _304
REMARK  129  A    between atoms: _307  and  _309
REMARK  130  A    between atoms: _309  and  _310
REMARK  131  A    between atoms: _309  and  _312
REMARK  132  A    between atoms: _315  and  _317
REMARK  133  A    between atoms: _317  and  _318
REMARK  134  A    between atoms: _317  and  _320
REMARK  135  A    between atoms: _320  and  _321
REMARK  136  A    between atoms: _323  and  _325
REMARK  137  A    between atoms: _325  and  _326
REMARK  138  A    between atoms: _328  and  _330
REMARK  139  A    between atoms: _330  and  _331
REMARK  140  A    between atoms: _330  and  _333
REMARK  141  A    between atoms: _333  and  _334
REMARK                            x       y       z     vdW  Elec       q    Type
REMARK                         _______ _______ _______ _____ _____    ______ ____
ROOT
ATOM      1  C   GLN A   4      11.367   2.605   1.034  0.00  0.00    +0.241 C 
ATOM      2  N   VAL A   5      11.421   3.563   1.948  0.00  0.00    -0.297 N 
ATOM      3  H   VAL A   5      11.829   3.356   2.882  0.00  0.00    +0.150 HD
ATOM      4  O   GLN A   4      11.021   2.794  -0.137  0.00  0.00    -0.273 OA
ENDROOT
BRANCH   2   5
ATOM      5  CA  VAL A   5      10.918   4.903   1.668  0.00  0.00    +0.149 C 
BRANCH   5   6
ATOM      6  C   VAL A   5      12.059   5.907   1.480  0.00  0.00    +0.241 C 
ATOM      7  O   VAL A   5      12.930   6.022   2.322  0.00  0.00    -0.273 OA
ATOM      8  N   GLY A   6      11.952   6.661   0.404  0.00  0.00    -0.295 N 
ATOM      9  H   GLY A   6      11.308   6.351  -0.352  0.00  0.00    +0.150 HD
BRANCH   8  10
ATOM     10  CA  GLY A   6      12.688   7.906   0.217  0.00  0.00    +0.176 C 
BRANCH  10  11
ATOM     11  C   GLY A   6      11.710   9.072   0.180  0.00  0.00    +0.243 C 
ATOM     12  N   LEU A   7      12.273  10.298   0.184  0.00  0.00    -0.297 N 
ATOM     13  H   LEU A   7      13.310  10.375   0.220  0.00  0.00    +0.150 HD
ATOM     14  O   GLY A   6      10.489   8.930   0.100  0.00  0.00    -0.273 OA
BRANCH  12  15
ATOM     15  CA  LEU A   7      11.477  11.519   0.140  0.00  0.00    +0.149 C 
BRANCH  15  16
ATOM     16  C   LEU A   7      11.263  11.895  -1.288  0.00  0.00    +0.241 C 
ATOM     17  O   LEU A   7      11.822  12.856  -1.822  0.00  0.00    -0.273 OA
ATOM     18  N   THR A   8      10.406  11.121  -1.975  0.00  0.00    -0.295 N 
ATOM     19  H   THR A   8       9.801  10.484  -1.419  0.00  0.00    +0.150 HD
BRANCH  18  20
ATOM     20  CA  THR A   8      10.243  11.087  -3.410  0.00  0.00    +0.176 C 
BRANCH  20  21
ATOM     21  C   THR A   8       9.064  11.911  -3.916  0.00  0.00    +0.243 C 
ATOM     22  N   SER A   9       8.540  12.744  -3.075  0.00  0.00    -0.296 N 
ATOM     23  H   SER A   9       8.813  12.692  -2.073  0.00  0.00    +0.150 HD
ATOM     24  O   THR A   8       8.697  11.777  -5.105  0.00  0.00    -0.273 OA
BRANCH  22  25
ATOM     25  CA  SER A   9       7.576  13.754  -3.497  0.00  0.00    +0.166 C 
BRANCH  25  26
ATOM     26  CB  SER A   9       7.892  15.037  -2.814  0.00  0.00    +0.229 C 
ATOM     27  OG  SER A   9       8.371  15.008  -1.682  0.00  0.00    -0.286 OA
ENDBRANCH  25  26
BRANCH  25  28
ATOM     28  C   SER A   9       6.143  13.281  -3.165  0.00  0.00    +0.165 C 
BRANCH  28  29
ATOM     29  O   SER A   9       5.922  13.193  -1.782  0.00  0.00    -0.380 OA
ATOM     30  H   SER A   9       6.056  14.083  -1.370  0.00  0.00    +0.211 HD
ENDBRANCH  28  29
ENDBRANCH  25  28
ENDBRANCH  22  25
ENDBRANCH  20  21
BRANCH  20  31
ATOM     31  CB  THR A   8      10.209   9.652  -3.877  0.00  0.00    +0.137 C 
ATOM     32  CG2 THR A   8      11.555   9.019  -3.872  0.00  0.00    +0.034 C 
BRANCH  31  33
ATOM     33  OG1 THR A   8       9.280   8.907  -3.064  0.00  0.00    -0.382 OA
ATOM     34  HG1 THR A   8       8.377   9.305  -3.148  0.00  0.00    +0.210 HD
ENDBRANCH  31  33
ENDBRANCH  20  31
ENDBRANCH  18  20
ENDBRANCH  15  16
BRANCH  15  35
ATOM     35  CB  LEU A   7      12.120  12.632   0.990  0.00  0.00    +0.029 C 
BRANCH  35  36
ATOM     36  CG  LEU A   7      12.491  12.266   2.389  0.00  0.00    +0.002 C 
ATOM     37  CD2 LEU A   7      11.234  11.731   3.142  0.00  0.00    +0.000 C 
ATOM     38  CD1 LEU A   7      13.138  13.490   3.090  0.00  0.00    +0.000 C 
ENDBRANCH  35  36
ENDBRANCH  15  35
ENDBRANCH  12  15
ENDBRANCH  10  11
ENDBRANCH   8  10
ENDBRANCH   5   6
BRANCH   5  39
ATOM     39  CB  VAL A   5       9.979   5.419   2.831  0.00  0.00    +0.027 C 
ATOM     40  CG2 VAL A   5       8.852   4.431   3.021  0.00  0.00    +0.002 C 
ATOM     41  CG1 VAL A   5       9.436   6.764   2.561  0.00  0.00    +0.002 C 
ENDBRANCH   5  39
ENDBRANCH   2   5
BRANCH   1  42
ATOM     42  CA  GLN A   4      11.902   1.229   1.482  0.00  0.00    +0.149 C 
BRANCH  42  44
ATOM     43  C   ASN A   3      10.091   0.848   3.084  0.00  0.00    +0.241 C 
ATOM     44  N   GLN A   4      11.419   0.868   2.803  0.00  0.00    -0.297 N 
ATOM     45  H   GLN A   4      12.102   0.620   3.547  0.00  0.00    +0.150 HD
ATOM     46  O   ASN A   3       9.252   1.189   2.254  0.00  0.00    -0.273 OA
BRANCH  43  47
ATOM     47  CA  ASN A   3       9.704   0.376   4.487  0.00  0.00    +0.158 C 
BRANCH  47  50
ATOM     48  C   ALA A   2      10.483   0.574   6.751  0.00  0.00    +0.241 C 
ATOM     49  O   ALA A   2       9.940  -0.526   7.044  0.00  0.00    -0.273 OA
ATOM     50  N   ASN A   3      10.461   1.049   5.523  0.00  0.00    -0.297 N 
ATOM     51  H   ASN A   3      10.991   1.914   5.295  0.00  0.00    +0.150 HD
BRANCH  48  52
ATOM     52  CA  ALA A   2      11.118   1.441   7.832  0.00  0.00    +0.149 C 
ATOM     53  CB  ALA A   2      11.854   0.590   8.844  0.00  0.00    +0.031 C 
BRANCH  52  55
ATOM     54  C   VAL A   1      10.045   3.544   8.542  0.00  0.00    +0.238 C 
ATOM     55  N   ALA A   2      10.040   2.229   8.442  0.00  0.00    -0.297 N 
ATOM     56  H   ALA A   2       9.218   1.716   8.820  0.00  0.00    +0.150 HD
ATOM     57  O   VAL A   1      11.029   4.246   8.260  0.00  0.00    -0.274 OA
BRANCH  54  58
ATOM     58  CA  VAL A   1       8.768   4.181   9.098  0.00  0.00    +0.145 C 
BRANCH  58  59
ATOM     59  CB  VAL A   1       7.966   4.806   7.940  0.00  0.00    +0.025 C 
ATOM     60  CG2 VAL A   1       6.599   5.240   8.475  0.00  0.00    +0.002 C 
ATOM     61  CG1 VAL A   1       7.778   3.844   6.780  0.00  0.00    +0.002 C 
ENDBRANCH  58  59
BRANCH  58  62
ATOM     62  N   VAL A   1       9.095   5.151  10.121  0.00  0.00    -0.238 NA
ATOM     63  H   VAL A   1       9.590   6.020   9.834  0.00  0.00    +0.142 HD
ENDBRANCH  58  62
ENDBRANCH  54  58
ENDBRANCH  52  55
ENDBRANCH  48  52
ENDBRANCH  47  50
BRANCH  47  64
ATOM     64  CB  ASN A   3       8.223   0.578   4.709  0.00  0.00    +0.114 C 
BRANCH  64  65
ATOM     65  CG  ASN A   3       7.378  -0.585   4.226  0.00  0.00    +0.222 C 
ATOM     66  OD1 ASN A   3       6.936  -1.384   5.042  0.00  0.00    -0.275 OA
ATOM     67  ND2 ASN A   3       7.139  -0.714   2.935  0.00  0.00    -0.329 N 
ATOM     68 HD21 ASN A   3       6.563  -1.508   2.590  0.00  0.00    +0.145 HD
ATOM     69 HD22 ASN A   3       7.526  -0.021   2.263  0.00  0.00    +0.145 HD
ENDBRANCH  64  65
ENDBRANCH  47  64
ENDBRANCH  43  47
ENDBRANCH  42  44
BRANCH  42  70
ATOM     70  CB  GLN A   4      11.620   0.157   0.451  0.00  0.00    +0.039 C 
BRANCH  70  71
ATOM     71  CG  GLN A   4      12.438  -1.119   0.666  0.00  0.00    +0.087 C 
BRANCH  71  72
ATOM     72  CD  GLN A   4      13.905  -0.858   0.443  0.00  0.00    +0.219 C 
ATOM     73  NE2 GLN A   4      14.741  -0.990   1.461  0.00  0.00    -0.329 N 
ATOM     74 HE21 GLN A   4      14.390  -1.321   2.382  0.00  0.00    +0.145 HD
ATOM     75 HE22 GLN A   4      15.748  -0.762   1.339  0.00  0.00    +0.145 HD
ATOM     76  OE1 GLN A   4      14.301  -0.465  -0.663  0.00  0.00    -0.275 OA
ENDBRANCH  71  72
ENDBRANCH  70  71
ENDBRANCH  42  70
ENDBRANCH   1  42
TORSDOF 31
REMARK  Name = ../refined-set-2016/2yln/2yln_pocket.pdb
REMARK  141 active torsions:
REMARK  status: ('A' for Active; 'I' for Inactive)
REMARK    1  A    between atoms: _1  and  _3
REMARK    2  A    between atoms: _3  and  _4
REMARK    3  A    between atoms: _3  and  _6
REMARK    4  A    between atoms: _6  and  _7
REMARK    5  A    between atoms: _7  and  _8
REMARK    6  A    between atoms: _11  and  _13
REMARK    7  A    between atoms: _13  and  _14
REMARK    8  A    between atoms: _13  and  _16
REMARK    9  A    between atoms: _16  and  _17
REMARK   10  A    between atoms: _22  and  _23
REMARK   11  A    between atoms: _25  and  _27
REMARK   12  A    between atoms: _27  and  _28
REMARK   13  A    between atoms: _27  and  _30
REMARK   14  A    between atoms: _30  and  _31
REMARK   15  A    between atoms: _37  and  _39
REMARK   16  A    between atoms: _39  and  _40
REMARK   17  A    between atoms: _39  and  _42
REMARK   18  A    between atoms: _42  and  _43
REMARK   19  A    between atoms: _46  and  _48
REMARK   20  A    between atoms: _48  and  _49
REMARK   21  A    between atoms: _48  and  _51
REMARK   22  A    between atoms: _51  and  _52
REMARK   23  A    between atoms: _55  and  _57
REMARK   24  A    between atoms: _57  and  _58
REMARK   25  A    between atoms: _57  and  _60
REMARK   26  A    between atoms: _60  and  _61
REMARK   27  A    between atoms: _71  and  _73
REMARK   28  A    between atoms: _73  and  _74
REMARK   29  A    between atoms: _73  and  _76
REMARK   30  A    between atoms: _76  and  _77
REMARK   31  A    between atoms: _80  and  _82
REMARK   32  A    between atoms: _82  and  _83
REMARK   33  A    between atoms: _82  and  _85
REMARK   34  A    between atoms: _85  and  _86
REMARK   35  A    between atoms: _86  and  _87
REMARK   36  A    between atoms: _89  and  _91
REMARK   37  A    between atoms: _91  and  _92
REMARK   38  A    between atoms: _91  and  _94
REMARK   39  A    between atoms: _94  and  _95
REMARK   40  A    between atoms: _95  and  _96
REMARK   41  A    between atoms: _98  and  _100
REMARK   42  A    between atoms: _100  and  _101
REMARK   43  A    between atoms: _100  and  _103
REMARK   44  A    between atoms: _106  and  _108
REMARK   45  A    between atoms: _108  and  _109
REMARK   46  A    between atoms: _112  and  _114
REMARK   47  A    between atoms: _114  and  _115
REMARK   48  A    between atoms: _114  and  _117
REMARK   49  A    between atoms: _117  and  _118
REMARK   50  A    between atoms: _123  and  _125
REMARK   51  A    between atoms: _125  and  _126
REMARK   52  A    between atoms: _125  and  _128
REMARK   53  A    between atoms: _128  and  _129
REMARK   54  A    between atoms: _129  and  _130
REMARK   55  A    between atoms: _135  and  _137
REMARK   56  A    between atoms: _137  and  _138
REMARK   57  A    between atoms: _137  and  _140
REMARK   58  A    between atoms: _143  and  _145
REMARK   59  A    between atoms: _145  and  _146
REMARK   60  A    between atoms: _148  and  _150
REMARK   61  A    between atoms: _150  and  _151
REMARK   62  A    between atoms: _150  and  _153
REMARK   63  A    between atoms: _153  and  _154
REMARK   64  A    between atoms: _157  and  _159
REMARK   65  A    between atoms: _159  and  _160
REMARK   66  A    between atoms: _159  and  _162
REMARK   67  A    between atoms: _162  and  _163
REMARK   68  A    between atoms: _166  and  _168
REMARK   69  A    between atoms: _168  and  _169
REMARK   70  A    between atoms: _168  and  _171
REMARK   71  A    between atoms: _171  and  _172
REMARK   72  A    between atoms: _174  and  _176
REMARK   73  A    between atoms: _176  and  _177
REMARK   74  A    between atoms: _176  and  _179
REMARK   75  A    between atoms: _179  and  _180
REMARK   76  A    between atoms: _180  and  _181
REMARK   77  A    between atoms: _181  and  _182
REMARK   78  A    between atoms: _191  and  _193
REMARK   79  A    between atoms: _193  and  _194
REMARK   80  A    between atoms: _193  and  _196
REMARK   81  A    between atoms: _196  and  _197
REMARK   82  A    between atoms: _199  and  _201
REMARK   83  A    between atoms: _201  and  _202
REMARK   84  A    between atoms: _201  and  _204
REMARK   85  A    between atoms: _204  and  _205
REMARK   86  A    between atoms: _208  and  _210
REMARK   87  A    between atoms: _210  and  _211
REMARK   88  A    between atoms: _210  and  _213
REMARK   89  A    between atoms: _213  and  _214
REMARK   90  A    between atoms: _217  and  _219
REMARK   91  A    between atoms: _219  and  _220
REMARK   92  A    between atoms: _219  and  _222
REMARK   93  A    between atoms: _222  and  _223
REMARK   94  A    between atoms: _225  and  _227
REMARK   95  A    between atoms: _227  and  _228
REMARK   96  A    between atoms: _227  and  _230
REMARK   97  A    between atoms: _230  and  _231
REMARK   98  A    between atoms: _236  and  _238
REMARK   99  A    between atoms: _238  and  _239
REMARK  100  A    between atoms: _238  and  _241
REMARK  101  A    between atoms: _241  and  _242
REMARK  102  A    between atoms: _247  and  _248
REMARK  103  A    between atoms: _250  and  _252
REMARK  104  A    between atoms: _252  and  _253
REMARK  105  A    between atoms: _255  and  _257
REMARK  106  A    between atoms: _257  and  _258
REMARK  107  A    between atoms: _257  and  _260
REMARK  108  A    between atoms: _260  and  _261
REMARK  109  A    between atoms: _261  and  _262
REMARK  110  A    between atoms: _265  and  _267
REMARK  111  A    between atoms: _267  and  _268
REMARK  112  A    between atoms: _267  and  _270
REMARK  113  A    between atoms: _270  and  _271
REMARK  114  A    between atoms: _271  and  _272
REMARK  115  A    between atoms: _272  and  _273
REMARK  116  A    between atoms: _273  and  _274
REMARK  117  A    between atoms: _278  and  _280
REMARK  118  A    between atoms: _280  and  _281
REMARK  119  A    between atoms: _280  and  _283
REMARK  120  A    between atoms: _283  and  _284
REMARK  121  A    between atoms: _287  and  _289
REMARK  122  A    between atoms: _289  and  _290
REMARK  123  A    between atoms: _289  and  _292
REMARK  124  A    between atoms: _292  and  _293
REMARK  125  A    between atoms: _298  and  _300
REMARK  126  A    between atoms: _300  and  _301
REMARK  127  A    between atoms: _300  and  _303
REMARK  128  A    between atoms: _303  and  _304
REMARK  129  A    between atoms: _307  and  _309
REMARK  130  A    between atoms: _309  and  _310
REMARK  131  A    between atoms: _309  and  _312
REMARK  132  A    between atoms: _315  and  _317
REMARK  133  A    between atoms: _317  and  _318
REMARK  134  A    between atoms: _317  and  _320
REMARK  135  A    between atoms: _320  and  _321
REMARK  136  A    between atoms: _323  and  _325
REMARK  137  A    between atoms: _325  and  _326
REMARK  138  A    between atoms: _328  and  _330
REMARK  139  A    between atoms: _330  and  _331
REMARK  140  A    between atoms: _330  and  _333
REMARK  141  A    between atoms: _333  and  _334
REMARK                            x       y       z     vdW  Elec       q    Type
REMARK                         _______ _______ _______ _____ _____    ______ ____
ROOT
ATOM      1  NE  ARG A   1       6.242   9.359   0.332  0.00  0.00    -0.265 N 
ATOM      2  HE  ARG A   1       5.283   9.568   0.677  0.00  0.00    +0.259 HD
ATOM      3  CZ  ARG A   1       6.499   8.141  -0.122  0.00  0.00    +0.342 C 
ATOM      4  NH2 ARG A   1       5.516   7.255  -0.187  0.00  0.00    -0.292 N 
ATOM      5 HH21 ARG A   1       4.557   7.519   0.116  0.00  0.00    +0.255 HD
ATOM      6 HH22 ARG A   1       5.703   6.295  -0.541  0.00  0.00    +0.255 HD
ATOM      7  NH1 ARG A   1       7.687   7.743  -0.451  0.00  0.00    -0.292 N 
ATOM      8 HH11 ARG A   1       8.495   8.392  -0.364  0.00  0.00    +0.255 HD
ATOM      9 HH12 ARG A   1       7.832   6.775  -0.802  0.00  0.00    +0.255 HD
ENDROOT
BRANCH   1  10
ATOM     10  CD  ARG A   1       7.230  10.408   0.370  0.00  0.00    +0.174 C 
BRANCH  10  11
ATOM     11  CG  ARG A   1       6.753  11.592   1.184  0.00  0.00    +0.045 C 
BRANCH  11  12
ATOM     12  CB  ARG A   1       7.761  12.690   1.107  0.00  0.00    +0.029 C 
BRANCH  12  13
ATOM     13  CA  ARG A   1       7.286  14.030   1.643  0.00  0.00    +0.133 C 
BRANCH  13  14
ATOM     14  N   ARG A   1       6.506  14.761   0.635  0.00  0.00    -0.239 NA
ATOM     15  H   ARG A   1       6.428  14.412  -0.342  0.00  0.00    +0.142 HD
ENDBRANCH  13  14
BRANCH  13  16
ATOM     16  C   ARG A   1       8.453  14.887   2.104  0.00  0.00    +0.224 C 
ATOM     17  O   ARG A   1       8.808  14.904   3.238  0.00  0.00    -0.287 OA
ENDBRANCH  13  16
ENDBRANCH  12  13
ENDBRANCH  11  12
ENDBRANCH  10  11
ENDBRANCH   1  10
TORSDOF 6
REMARK  Name = ../refined-set-2016/2yln/2yln_pocket.pdb
REMARK  141 active torsions:
REMARK  status: ('A' for Active; 'I' for Inactive)
REMARK    1  A    between atoms: _1  and  _3
REMARK    2  A    between atoms: _3  and  _4
REMARK    3  A    between atoms: _3  and  _6
REMARK    4  A    between atoms: _6  and  _7
REMARK    5  A    between atoms: _7  and  _8
REMARK    6  A    between atoms: _11  and  _13
REMARK    7  A    between atoms: _13  and  _14
REMARK    8  A    between atoms: _13  and  _16
REMARK    9  A    between atoms: _16  and  _17
REMARK   10  A    between atoms: _22  and  _23
REMARK   11  A    between atoms: _25  and  _27
REMARK   12  A    between atoms: _27  and  _28
REMARK   13  A    between atoms: _27  and  _30
REMARK   14  A    between atoms: _30  and  _31
REMARK   15  A    between atoms: _37  and  _39
REMARK   16  A    between atoms: _39  and  _40
REMARK   17  A    between atoms: _39  and  _42
REMARK   18  A    between atoms: _42  and  _43
REMARK   19  A    between atoms: _46  and  _48
REMARK   20  A    between atoms: _48  and  _49
REMARK   21  A    between atoms: _48  and  _51
REMARK   22  A    between atoms: _51  and  _52
REMARK   23  A    between atoms: _55  and  _57
REMARK   24  A    between atoms: _57  and  _58
REMARK   25  A    between atoms: _57  and  _60
REMARK   26  A    between atoms: _60  and  _61
REMARK   27  A    between atoms: _71  and  _73
REMARK   28  A    between atoms: _73  and  _74
REMARK   29  A    between atoms: _73  and  _76
REMARK   30  A    between atoms: _76  and  _77
REMARK   31  A    between atoms: _80  and  _82
REMARK   32  A    between atoms: _82  and  _83
REMARK   33  A    between atoms: _82  and  _85
REMARK   34  A    between atoms: _85  and  _86
REMARK   35  A    between atoms: _86  and  _87
REMARK   36  A    between atoms: _89  and  _91
REMARK   37  A    between atoms: _91  and  _92
REMARK   38  A    between atoms: _91  and  _94
REMARK   39  A    between atoms: _94  and  _95
REMARK   40  A    between atoms: _95  and  _96
REMARK   41  A    between atoms: _98  and  _100
REMARK   42  A    between atoms: _100  and  _101
REMARK   43  A    between atoms: _100  and  _103
REMARK   44  A    between atoms: _106  and  _108
REMARK   45  A    between atoms: _108  and  _109
REMARK   46  A    between atoms: _112  and  _114
REMARK   47  A    between atoms: _114  and  _115
REMARK   48  A    between atoms: _114  and  _117
REMARK   49  A    between atoms: _117  and  _118
REMARK   50  A    between atoms: _123  and  _125
REMARK   51  A    between atoms: _125  and  _126
REMARK   52  A    between atoms: _125  and  _128
REMARK   53  A    between atoms: _128  and  _129
REMARK   54  A    between atoms: _129  and  _130
REMARK   55  A    between atoms: _135  and  _137
REMARK   56  A    between atoms: _137  and  _138
REMARK   57  A    between atoms: _137  and  _140
REMARK   58  A    between atoms: _143  and  _145
REMARK   59  A    between atoms: _145  and  _146
REMARK   60  A    between atoms: _148  and  _150
REMARK   61  A    between atoms: _150  and  _151
REMARK   62  A    between atoms: _150  and  _153
REMARK   63  A    between atoms: _153  and  _154
REMARK   64  A    between atoms: _157  and  _159
REMARK   65  A    between atoms: _159  and  _160
REMARK   66  A    between atoms: _159  and  _162
REMARK   67  A    between atoms: _162  and  _163
REMARK   68  A    between atoms: _166  and  _168
REMARK   69  A    between atoms: _168  and  _169
REMARK   70  A    between atoms: _168  and  _171
REMARK   71  A    between atoms: _171  and  _172
REMARK   72  A    between atoms: _174  and  _176
REMARK   73  A    between atoms: _176  and  _177
REMARK   74  A    between atoms: _176  and  _179
REMARK   75  A    between atoms: _179  and  _180
REMARK   76  A    between atoms: _180  and  _181
REMARK   77  A    between atoms: _181  and  _182
REMARK   78  A    between atoms: _191  and  _193
REMARK   79  A    between atoms: _193  and  _194
REMARK   80  A    between atoms: _193  and  _196
REMARK   81  A    between atoms: _196  and  _197
REMARK   82  A    between atoms: _199  and  _201
REMARK   83  A    between atoms: _201  and  _202
REMARK   84  A    between atoms: _201  and  _204
REMARK   85  A    between atoms: _204  and  _205
REMARK   86  A    between atoms: _208  and  _210
REMARK   87  A    between atoms: _210  and  _211
REMARK   88  A    between atoms: _210  and  _213
REMARK   89  A    between atoms: _213  and  _214
REMARK   90  A    between atoms: _217  and  _219
REMARK   91  A    between atoms: _219  and  _220
REMARK   92  A    between atoms: _219  and  _222
REMARK   93  A    between atoms: _222  and  _223
REMARK   94  A    between atoms: _225  and  _227
REMARK   95  A    between atoms: _227  and  _228
REMARK   96  A    between atoms: _227  and  _230
REMARK   97  A    between atoms: _230  and  _231
REMARK   98  A    between atoms: _236  and  _238
REMARK   99  A    between atoms: _238  and  _239
REMARK  100  A    between atoms: _238  and  _241
REMARK  101  A    between atoms: _241  and  _242
REMARK  102  A    between atoms: _247  and  _248
REMARK  103  A    between atoms: _250  and  _252
REMARK  104  A    between atoms: _252  and  _253
REMARK  105  A    between atoms: _255  and  _257
REMARK  106  A    between atoms: _257  and  _258
REMARK  107  A    between atoms: _257  and  _260
REMARK  108  A    between atoms: _260  and  _261
REMARK  109  A    between atoms: _261  and  _262
REMARK  110  A    between atoms: _265  and  _267
REMARK  111  A    between atoms: _267  and  _268
REMARK  112  A    between atoms: _267  and  _270
REMARK  113  A    between atoms: _270  and  _271
REMARK  114  A    between atoms: _271  and  _272
REMARK  115  A    between atoms: _272  and  _273
REMARK  116  A    between atoms: _273  and  _274
REMARK  117  A    between atoms: _278  and  _280
REMARK  118  A    between atoms: _280  and  _281
REMARK  119  A    between atoms: _280  and  _283
REMARK  120  A    between atoms: _283  and  _284
REMARK  121  A    between atoms: _287  and  _289
REMARK  122  A    between atoms: _289  and  _290
REMARK  123  A    between atoms: _289  and  _292
REMARK  124  A    between atoms: _292  and  _293
REMARK  125  A    between atoms: _298  and  _300
REMARK  126  A    between atoms: _300  and  _301
REMARK  127  A    between atoms: _300  and  _303
REMARK  128  A    between atoms: _303  and  _304
REMARK  129  A    between atoms: _307  and  _309
REMARK  130  A    between atoms: _309  and  _310
REMARK  131  A    between atoms: _309  and  _312
REMARK  132  A    between atoms: _315  and  _317
REMARK  133  A    between atoms: _317  and  _318
REMARK  134  A    between atoms: _317  and  _320
REMARK  135  A    between atoms: _320  and  _321
REMARK  136  A    between atoms: _323  and  _325
REMARK  137  A    between atoms: _325  and  _326
REMARK  138  A    between atoms: _328  and  _330
REMARK  139  A    between atoms: _330  and  _331
REMARK  140  A    between atoms: _330  and  _333
REMARK  141  A    between atoms: _333  and  _334
REMARK                            x       y       z     vdW  Elec       q    Type
REMARK                         _______ _______ _______ _____ _____    ______ ____
ROOT
ATOM      1  C   ASN A   5       5.540   5.725  -6.442  0.00  0.00    +0.241 C 
ATOM      2  N   TYR A   6       5.368   4.391  -6.498  0.00  0.00    -0.297 N 
ATOM      3  H   TYR A   6       5.497   3.831  -5.631  0.00  0.00    +0.150 HD
ATOM      4  O   ASN A   5       5.417   6.431  -7.457  0.00  0.00    -0.273 OA
ENDROOT
BRANCH   2   5
ATOM      5  CA  TYR A   6       5.008   3.705  -7.731  0.00  0.00    +0.153 C 
BRANCH   5   6
ATOM      6  C   TYR A   6       3.604   4.094  -8.178  0.00  0.00    +0.241 C 
ATOM      7  N   GLY A   7       2.648   4.091  -7.267  0.00  0.00    -0.295 N 
ATOM      8  H   GLY A   7       2.860   3.774  -6.300  0.00  0.00    +0.150 HD
ATOM      9  O   TYR A   6       3.373   4.360  -9.366  0.00  0.00    -0.273 OA
BRANCH   7  10
ATOM     10  CA  GLY A   7       1.311   4.524  -7.600  0.00  0.00    +0.176 C 
BRANCH  10  11
ATOM     11  C   GLY A   7       1.237   5.951  -8.081  0.00  0.00    +0.243 C 
ATOM     12  N   GLU A   8       1.969   6.842  -7.462  0.00  0.00    -0.297 N 
ATOM     13  H   GLU A   8       2.613   6.536  -6.705  0.00  0.00    +0.150 HD
ATOM     14  O   GLY A   7       0.527   6.256  -9.059  0.00  0.00    -0.273 OA
BRANCH  12  15
ATOM     15  CA  GLU A   8       1.900   8.232  -7.807  0.00  0.00    +0.149 C 
BRANCH  15  16
ATOM     16  C   GLU A   8       2.551   8.434  -9.180  0.00  0.00    +0.241 C 
ATOM     17  N   LYS A   9       3.605   7.692  -9.472  0.00  0.00    -0.298 N 
ATOM     18  H   LYS A   9       3.970   7.035  -8.753  0.00  0.00    +0.150 HD
ATOM     19  O   GLU A   8       2.058   9.191 -10.006  0.00  0.00    -0.273 OA
BRANCH  17  20
ATOM     20  CA  LYS A   9       4.275   7.761 -10.766  0.00  0.00    +0.137 C 
BRANCH  20  21
ATOM     21  C   LYS A   9       3.391   7.198 -11.875  0.00  0.00    +0.227 C 
ATOM     22  O   LYS A   9       3.276   7.762 -12.973  0.00  0.00    -0.286 OA
ENDBRANCH  20  21
BRANCH  20  23
ATOM     23  CB  LYS A   9       5.645   7.069 -10.709  0.00  0.00    +0.028 C 
BRANCH  23  24
ATOM     24  CG  LYS A   9       6.454   7.219 -11.990  0.00  0.00    -0.000 C 
BRANCH  24  25
ATOM     25  CD  LYS A   9       6.877   8.652 -12.275  0.00  0.00    -0.024 C 
BRANCH  25  26
ATOM     26  CE  LYS A   9       8.147   8.768 -13.174  0.00  0.00    -0.086 C 
BRANCH  26  27
ATOM     27  NZ  LYS A   9       8.564  10.199 -12.991  0.00  0.00    +0.380 N 
ATOM     28  HZ1 LYS A   9       8.769  10.373 -11.986  0.00  0.00    -0.089 HD
ATOM     29  HZ2 LYS A   9       7.795  10.826 -13.303  0.00  0.00    -0.089 HD
ATOM     30  HZ3 LYS A   9       9.416  10.386 -13.557  0.00  0.00    -0.089 HD
ENDBRANCH  26  27
ENDBRANCH  25  26
ENDBRANCH  24  25
ENDBRANCH  23  24
ENDBRANCH  20  23
ENDBRANCH  17  20
ENDBRANCH  15  16
BRANCH  15  31
ATOM     31  CB  GLU A   8       2.517   9.052  -6.690  0.00  0.00    +0.041 C 
BRANCH  31  32
ATOM     32  CG  GLU A   8       1.620   9.035  -5.494  0.00  0.00    +0.116 C 
BRANCH  32  33
ATOM     33  CD  GLU A   8       2.076   9.921  -4.367  0.00  0.00    +0.365 C 
ATOM     34  OE2 GLU A   8       1.538   9.720  -3.209  0.00  0.00    -0.246 OA
ATOM     35  OE1 GLU A   8       2.961  10.781  -4.598  0.00  0.00    -0.246 OA
ENDBRANCH  32  33
ENDBRANCH  31  32
ENDBRANCH  15  31
ENDBRANCH  12  15
ENDBRANCH  10  11
ENDBRANCH   7  10
ENDBRANCH   5   6
BRANCH   5  36
ATOM     36  CB  TYR A   6       5.136   2.203  -7.526  0.00  0.00    +0.055 C 
BRANCH  36  37
ATOM     37  CG  TYR A   6       6.449   1.759  -6.955  0.00  0.00    -0.020 A 
ATOM     38  CD2 TYR A   6       6.537   1.128  -5.764  0.00  0.00    -0.001 A 
ATOM     39  CE2 TYR A   6       7.749   0.788  -5.217  0.00  0.00    +0.036 A 
ATOM     40  CZ  TYR A   6       8.917   1.145  -5.836  0.00  0.00    +0.134 A 
ATOM     41  CE1 TYR A   6       8.861   1.726  -7.089  0.00  0.00    +0.036 A 
ATOM     42  CD1 TYR A   6       7.626   2.058  -7.644  0.00  0.00    -0.001 A 
BRANCH  40  43
ATOM     43  OH  TYR A   6      10.138   0.851  -5.344  0.00  0.00    -0.506 OA
ATOM     44  HH  TYR A   6      10.832   1.205  -5.954  0.00  0.00    +0.292 HD
ENDBRANCH  40  43
ENDBRANCH  36  37
ENDBRANCH   5  36
ENDBRANCH   2   5
BRANCH   1  45
ATOM     45  CA  ASN A   5       5.876   6.312  -5.099  0.00  0.00    +0.158 C 
BRANCH  45  47
ATOM     46  C   SER A   4       3.916   5.519  -4.022  0.00  0.00    +0.243 C 
ATOM     47  N   ASN A   5       5.229   5.646  -4.025  0.00  0.00    -0.297 N 
ATOM     48  H   ASN A   5       5.790   5.258  -3.240  0.00  0.00    +0.150 HD
ATOM     49  O   SER A   4       3.236   6.059  -4.905  0.00  0.00    -0.273 OA
BRANCH  46  50
ATOM     50  CA  SER A   4       3.311   4.607  -3.009  0.00  0.00    +0.178 C 
BRANCH  50  53
ATOM     51  C   THR A   3       1.455   6.018  -2.363  0.00  0.00    +0.243 C 
ATOM     52  O   THR A   3       2.239   6.843  -1.894  0.00  0.00    -0.273 OA
ATOM     53  N   SER A   4       1.875   4.873  -2.891  0.00  0.00    -0.295 N 
ATOM     54  H   SER A   4       1.186   4.167  -3.220  0.00  0.00    +0.150 HD
BRANCH  51  55
ATOM     55  CA  THR A   3      -0.025   6.307  -2.340  0.00  0.00    +0.176 C 
BRANCH  55  57
ATOM     56  C   LEU A   2      -1.253   5.308  -4.203  0.00  0.00    +0.241 C 
ATOM     57  N   THR A   3      -0.810   5.232  -2.944  0.00  0.00    -0.295 N 
ATOM     58  H   THR A   3      -1.030   4.386  -2.380  0.00  0.00    +0.150 HD
ATOM     59  O   LEU A   2      -0.966   6.244  -4.943  0.00  0.00    -0.273 OA
BRANCH  56  60
ATOM     60  CA  LEU A   2      -2.211   4.234  -4.644  0.00  0.00    +0.149 C 
BRANCH  60  62
ATOM     61  C   SER A   1      -0.840   2.239  -4.379  0.00  0.00    +0.241 C 
ATOM     62  N   LEU A   2      -1.959   2.903  -4.090  0.00  0.00    -0.297 N 
ATOM     63  H   LEU A   2      -2.664   2.468  -3.461  0.00  0.00    +0.150 HD
ATOM     64  O   SER A   1       0.084   2.786  -4.970  0.00  0.00    -0.274 OA
BRANCH  61  65
ATOM     65  CA  SER A   1      -0.785   0.735  -4.051  0.00  0.00    +0.174 C 
BRANCH  65  66
ATOM     66  N   SER A   1      -0.412   0.031  -5.227  0.00  0.00    -0.236 NA
ATOM     67  H   SER A   1       0.515  -0.440  -5.265  0.00  0.00    +0.142 HD
ENDBRANCH  65  66
BRANCH  65  68
ATOM     68  CB  SER A   1       0.139   0.446  -2.878  0.00  0.00    +0.163 C 
BRANCH  68  69
ATOM     69  OG  SER A   1       1.473   0.851  -3.171  0.00  0.00    -0.380 OA
ATOM     70  H   SER A   1       1.488   1.823  -3.357  0.00  0.00    +0.211 HD
ENDBRANCH  68  69
ENDBRANCH  65  68
ENDBRANCH  61  65
ENDBRANCH  60  62
BRANCH  60  71
ATOM     71  CB  LEU A   2      -3.594   4.679  -4.397  0.00  0.00    +0.029 C 
BRANCH  71  72
ATOM     72  CG  LEU A   2      -4.677   3.820  -4.988  0.00  0.00    +0.002 C 
ATOM     73  CD2 LEU A   2      -6.029   4.505  -4.646  0.00  0.00    +0.000 C 
ATOM     74  CD1 LEU A   2      -4.449   3.524  -6.478  0.00  0.00    +0.000 C 
ENDBRANCH  71  72
ENDBRANCH  60  71
ENDBRANCH  56  60
ENDBRANCH  55  57
BRANCH  55  75
ATOM     75  CB  THR A   3      -0.440   6.542  -0.858  0.00  0.00    +0.137 C 
ATOM     76  CG2 THR A   3      -1.954   6.767  -0.727  0.00  0.00    +0.034 C 
BRANCH  75  77
ATOM     77  OG1 THR A   3       0.018   5.434  -0.083  0.00  0.00    -0.382 OA
ATOM     78  HG1 THR A   3      -0.395   4.601  -0.424  0.00  0.00    +0.210 HD
ENDBRANCH  75  77
ENDBRANCH  55  75
ENDBRANCH  51  55
ENDBRANCH  50  53
BRANCH  50  79
ATOM     79  CB  SER A   4       3.559   3.117  -3.337  0.00  0.00    +0.166 C 
BRANCH  79  80
ATOM     80  OG  SER A   4       3.018   2.807  -4.590  0.00  0.00    -0.380 OA
ATOM     81  H   SER A   4       2.044   2.981  -4.580  0.00  0.00    +0.211 HD
ENDBRANCH  79  80
ENDBRANCH  50  79
ENDBRANCH  46  50
ENDBRANCH  45  47
BRANCH  45  82
ATOM     82  CB  ASN A   5       7.389   6.471  -4.890  0.00  0.00    +0.114 C 
BRANCH  82  83
ATOM     83  CG  ASN A   5       8.160   5.175  -4.916  0.00  0.00    +0.222 C 
ATOM     84  OD1 ASN A   5       7.888   4.239  -4.176  0.00  0.00    -0.275 OA
ATOM     85  ND2 ASN A   5       9.112   5.127  -5.837  0.00  0.00    -0.329 N 
ATOM     86 HD21 ASN A   5       9.674   4.260  -5.960  0.00  0.00    +0.145 HD
ATOM     87 HD22 ASN A   5       9.297   5.956  -6.437  0.00  0.00    +0.145 HD
ENDBRANCH  82  83
ENDBRANCH  45  82
ENDBRANCH   1  45
TORSDOF 39
REMARK  Name = ../refined-set-2016/2yln/2yln_pocket.pdb
REMARK  141 active torsions:
REMARK  status: ('A' for Active; 'I' for Inactive)
REMARK    1  A    between atoms: _1  and  _3
REMARK    2  A    between atoms: _3  and  _4
REMARK    3  A    between atoms: _3  and  _6
REMARK    4  A    between atoms: _6  and  _7
REMARK    5  A    between atoms: _7  and  _8
REMARK    6  A    between atoms: _11  and  _13
REMARK    7  A    between atoms: _13  and  _14
REMARK    8  A    between atoms: _13  and  _16
REMARK    9  A    between atoms: _16  and  _17
REMARK   10  A    between atoms: _22  and  _23
REMARK   11  A    between atoms: _25  and  _27
REMARK   12  A    between atoms: _27  and  _28
REMARK   13  A    between atoms: _27  and  _30
REMARK   14  A    between atoms: _30  and  _31
REMARK   15  A    between atoms: _37  and  _39
REMARK   16  A    between atoms: _39  and  _40
REMARK   17  A    between atoms: _39  and  _42
REMARK   18  A    between atoms: _42  and  _43
REMARK   19  A    between atoms: _46  and  _48
REMARK   20  A    between atoms: _48  and  _49
REMARK   21  A    between atoms: _48  and  _51
REMARK   22  A    between atoms: _51  and  _52
REMARK   23  A    between atoms: _55  and  _57
REMARK   24  A    between atoms: _57  and  _58
REMARK   25  A    between atoms: _57  and  _60
REMARK   26  A    between atoms: _60  and  _61
REMARK   27  A    between atoms: _71  and  _73
REMARK   28  A    between atoms: _73  and  _74
REMARK   29  A    between atoms: _73  and  _76
REMARK   30  A    between atoms: _76  and  _77
REMARK   31  A    between atoms: _80  and  _82
REMARK   32  A    between atoms: _82  and  _83
REMARK   33  A    between atoms: _82  and  _85
REMARK   34  A    between atoms: _85  and  _86
REMARK   35  A    between atoms: _86  and  _87
REMARK   36  A    between atoms: _89  and  _91
REMARK   37  A    between atoms: _91  and  _92
REMARK   38  A    between atoms: _91  and  _94
REMARK   39  A    between atoms: _94  and  _95
REMARK   40  A    between atoms: _95  and  _96
REMARK   41  A    between atoms: _98  and  _100
REMARK   42  A    between atoms: _100  and  _101
REMARK   43  A    between atoms: _100  and  _103
REMARK   44  A    between atoms: _106  and  _108
REMARK   45  A    between atoms: _108  and  _109
REMARK   46  A    between atoms: _112  and  _114
REMARK   47  A    between atoms: _114  and  _115
REMARK   48  A    between atoms: _114  and  _117
REMARK   49  A    between atoms: _117  and  _118
REMARK   50  A    between atoms: _123  and  _125
REMARK   51  A    between atoms: _125  and  _126
REMARK   52  A    between atoms: _125  and  _128
REMARK   53  A    between atoms: _128  and  _129
REMARK   54  A    between atoms: _129  and  _130
REMARK   55  A    between atoms: _135  and  _137
REMARK   56  A    between atoms: _137  and  _138
REMARK   57  A    between atoms: _137  and  _140
REMARK   58  A    between atoms: _143  and  _145
REMARK   59  A    between atoms: _145  and  _146
REMARK   60  A    between atoms: _148  and  _150
REMARK   61  A    between atoms: _150  and  _151
REMARK   62  A    between atoms: _150  and  _153
REMARK   63  A    between atoms: _153  and  _154
REMARK   64  A    between atoms: _157  and  _159
REMARK   65  A    between atoms: _159  and  _160
REMARK   66  A    between atoms: _159  and  _162
REMARK   67  A    between atoms: _162  and  _163
REMARK   68  A    between atoms: _166  and  _168
REMARK   69  A    between atoms: _168  and  _169
REMARK   70  A    between atoms: _168  and  _171
REMARK   71  A    between atoms: _171  and  _172
REMARK   72  A    between atoms: _174  and  _176
REMARK   73  A    between atoms: _176  and  _177
REMARK   74  A    between atoms: _176  and  _179
REMARK   75  A    between atoms: _179  and  _180
REMARK   76  A    between atoms: _180  and  _181
REMARK   77  A    between atoms: _181  and  _182
REMARK   78  A    between atoms: _191  and  _193
REMARK   79  A    between atoms: _193  and  _194
REMARK   80  A    between atoms: _193  and  _196
REMARK   81  A    between atoms: _196  and  _197
REMARK   82  A    between atoms: _199  and  _201
REMARK   83  A    between atoms: _201  and  _202
REMARK   84  A    between atoms: _201  and  _204
REMARK   85  A    between atoms: _204  and  _205
REMARK   86  A    between atoms: _208  and  _210
REMARK   87  A    between atoms: _210  and  _211
REMARK   88  A    between atoms: _210  and  _213
REMARK   89  A    between atoms: _213  and  _214
REMARK   90  A    between atoms: _217  and  _219
REMARK   91  A    between atoms: _219  and  _220
REMARK   92  A    between atoms: _219  and  _222
REMARK   93  A    between atoms: _222  and  _223
REMARK   94  A    between atoms: _225  and  _227
REMARK   95  A    between atoms: _227  and  _228
REMARK   96  A    between atoms: _227  and  _230
REMARK   97  A    between atoms: _230  and  _231
REMARK   98  A    between atoms: _236  and  _238
REMARK   99  A    between atoms: _238  and  _239
REMARK  100  A    between atoms: _238  and  _241
REMARK  101  A    between atoms: _241  and  _242
REMARK  102  A    between atoms: _247  and  _248
REMARK  103  A    between atoms: _250  and  _252
REMARK  104  A    between atoms: _252  and  _253
REMARK  105  A    between atoms: _255  and  _257
REMARK  106  A    between atoms: _257  and  _258
REMARK  107  A    between atoms: _257  and  _260
REMARK  108  A    between atoms: _260  and  _261
REMARK  109  A    between atoms: _261  and  _262
REMARK  110  A    between atoms: _265  and  _267
REMARK  111  A    between atoms: _267  and  _268
REMARK  112  A    between atoms: _267  and  _270
REMARK  113  A    between atoms: _270  and  _271
REMARK  114  A    between atoms: _271  and  _272
REMARK  115  A    between atoms: _272  and  _273
REMARK  116  A    between atoms: _273  and  _274
REMARK  117  A    between atoms: _278  and  _280
REMARK  118  A    between atoms: _280  and  _281
REMARK  119  A    between atoms: _280  and  _283
REMARK  120  A    between atoms: _283  and  _284
REMARK  121  A    between atoms: _287  and  _289
REMARK  122  A    between atoms: _289  and  _290
REMARK  123  A    between atoms: _289  and  _292
REMARK  124  A    between atoms: _292  and  _293
REMARK  125  A    between atoms: _298  and  _300
REMARK  126  A    between atoms: _300  and  _301
REMARK  127  A    between atoms: _300  and  _303
REMARK  128  A    between atoms: _303  and  _304
REMARK  129  A    between atoms: _307  and  _309
REMARK  130  A    between atoms: _309  and  _310
REMARK  131  A    between atoms: _309  and  _312
REMARK  132  A    between atoms: _315  and  _317
REMARK  133  A    between atoms: _317  and  _318
REMARK  134  A    between atoms: _317  and  _320
REMARK  135  A    between atoms: _320  and  _321
REMARK  136  A    between atoms: _323  and  _325
REMARK  137  A    between atoms: _325  and  _326
REMARK  138  A    between atoms: _328  and  _330
REMARK  139  A    between atoms: _330  and  _331
REMARK  140  A    between atoms: _330  and  _333
REMARK  141  A    between atoms: _333  and  _334
REMARK                            x       y       z     vdW  Elec       q    Type
REMARK                         _______ _______ _______ _____ _____    ______ ____
ROOT
ATOM      1  CA  LEU A   1       3.394  -6.075  -5.172  0.00  0.00    +0.133 C 
ENDROOT
BRANCH   1   2
ATOM      2  N   LEU A   1       2.794  -5.526  -4.015  0.00  0.00    -0.239 NA
ATOM      3  H   LEU A   1       3.365  -5.410  -3.153  0.00  0.00    +0.142 HD
ENDBRANCH   1   2
BRANCH   1   4
ATOM      4  C   LEU A   1       2.847  -7.446  -5.512  0.00  0.00    +0.224 C 
ATOM      5  O   LEU A   1       2.509  -7.720  -6.668  0.00  0.00    -0.287 OA
ENDBRANCH   1   4
BRANCH   1   6
ATOM      6  CB  LEU A   1       4.916  -6.174  -4.979  0.00  0.00    +0.025 C 
BRANCH   6   7
ATOM      7  CG  LEU A   1       5.668  -6.841  -6.119  0.00  0.00    +0.002 C 
ATOM      8  CD2 LEU A   1       7.167  -6.948  -5.824  0.00  0.00    +0.000 C 
ATOM      9  CD1 LEU A   1       5.417  -6.175  -7.496  0.00  0.00    +0.000 C 
ENDBRANCH   6   7
ENDBRANCH   1   6
TORSDOF 4
REMARK  Name = ../refined-set-2016/2yln/2yln_pocket.pdb
REMARK  141 active torsions:
REMARK  status: ('A' for Active; 'I' for Inactive)
REMARK    1  A    between atoms: _1  and  _3
REMARK    2  A    between atoms: _3  and  _4
REMARK    3  A    between atoms: _3  and  _6
REMARK    4  A    between atoms: _6  and  _7
REMARK    5  A    between atoms: _7  and  _8
REMARK    6  A    between atoms: _11  and  _13
REMARK    7  A    between atoms: _13  and  _14
REMARK    8  A    between atoms: _13  and  _16
REMARK    9  A    between atoms: _16  and  _17
REMARK   10  A    between atoms: _22  and  _23
REMARK   11  A    between atoms: _25  and  _27
REMARK   12  A    between atoms: _27  and  _28
REMARK   13  A    between atoms: _27  and  _30
REMARK   14  A    between atoms: _30  and  _31
REMARK   15  A    between atoms: _37  and  _39
REMARK   16  A    between atoms: _39  and  _40
REMARK   17  A    between atoms: _39  and  _42
REMARK   18  A    between atoms: _42  and  _43
REMARK   19  A    between atoms: _46  and  _48
REMARK   20  A    between atoms: _48  and  _49
REMARK   21  A    between atoms: _48  and  _51
REMARK   22  A    between atoms: _51  and  _52
REMARK   23  A    between atoms: _55  and  _57
REMARK   24  A    between atoms: _57  and  _58
REMARK   25  A    between atoms: _57  and  _60
REMARK   26  A    between atoms: _60  and  _61
REMARK   27  A    between atoms: _71  and  _73
REMARK   28  A    between atoms: _73  and  _74
REMARK   29  A    between atoms: _73  and  _76
REMARK   30  A    between atoms: _76  and  _77
REMARK   31  A    between atoms: _80  and  _82
REMARK   32  A    between atoms: _82  and  _83
REMARK   33  A    between atoms: _82  and  _85
REMARK   34  A    between atoms: _85  and  _86
REMARK   35  A    between atoms: _86  and  _87
REMARK   36  A    between atoms: _89  and  _91
REMARK   37  A    between atoms: _91  and  _92
REMARK   38  A    between atoms: _91  and  _94
REMARK   39  A    between atoms: _94  and  _95
REMARK   40  A    between atoms: _95  and  _96
REMARK   41  A    between atoms: _98  and  _100
REMARK   42  A    between atoms: _100  and  _101
REMARK   43  A    between atoms: _100  and  _103
REMARK   44  A    between atoms: _106  and  _108
REMARK   45  A    between atoms: _108  and  _109
REMARK   46  A    between atoms: _112  and  _114
REMARK   47  A    between atoms: _114  and  _115
REMARK   48  A    between atoms: _114  and  _117
REMARK   49  A    between atoms: _117  and  _118
REMARK   50  A    between atoms: _123  and  _125
REMARK   51  A    between atoms: _125  and  _126
REMARK   52  A    between atoms: _125  and  _128
REMARK   53  A    between atoms: _128  and  _129
REMARK   54  A    between atoms: _129  and  _130
REMARK   55  A    between atoms: _135  and  _137
REMARK   56  A    between atoms: _137  and  _138
REMARK   57  A    between atoms: _137  and  _140
REMARK   58  A    between atoms: _143  and  _145
REMARK   59  A    between atoms: _145  and  _146
REMARK   60  A    between atoms: _148  and  _150
REMARK   61  A    between atoms: _150  and  _151
REMARK   62  A    between atoms: _150  and  _153
REMARK   63  A    between atoms: _153  and  _154
REMARK   64  A    between atoms: _157  and  _159
REMARK   65  A    between atoms: _159  and  _160
REMARK   66  A    between atoms: _159  and  _162
REMARK   67  A    between atoms: _162  and  _163
REMARK   68  A    between atoms: _166  and  _168
REMARK   69  A    between atoms: _168  and  _169
REMARK   70  A    between atoms: _168  and  _171
REMARK   71  A    between atoms: _171  and  _172
REMARK   72  A    between atoms: _174  and  _176
REMARK   73  A    between atoms: _176  and  _177
REMARK   74  A    between atoms: _176  and  _179
REMARK   75  A    between atoms: _179  and  _180
REMARK   76  A    between atoms: _180  and  _181
REMARK   77  A    between atoms: _181  and  _182
REMARK   78  A    between atoms: _191  and  _193
REMARK   79  A    between atoms: _193  and  _194
REMARK   80  A    between atoms: _193  and  _196
REMARK   81  A    between atoms: _196  and  _197
REMARK   82  A    between atoms: _199  and  _201
REMARK   83  A    between atoms: _201  and  _202
REMARK   84  A    between atoms: _201  and  _204
REMARK   85  A    between atoms: _204  and  _205
REMARK   86  A    between atoms: _208  and  _210
REMARK   87  A    between atoms: _210  and  _211
REMARK   88  A    between atoms: _210  and  _213
REMARK   89  A    between atoms: _213  and  _214
REMARK   90  A    between atoms: _217  and  _219
REMARK   91  A    between atoms: _219  and  _220
REMARK   92  A    between atoms: _219  and  _222
REMARK   93  A    between atoms: _222  and  _223
REMARK   94  A    between atoms: _225  and  _227
REMARK   95  A    between atoms: _227  and  _228
REMARK   96  A    between atoms: _227  and  _230
REMARK   97  A    between atoms: _230  and  _231
REMARK   98  A    between atoms: _236  and  _238
REMARK   99  A    between atoms: _238  and  _239
REMARK  100  A    between atoms: _238  and  _241
REMARK  101  A    between atoms: _241  and  _242
REMARK  102  A    between atoms: _247  and  _248
REMARK  103  A    between atoms: _250  and  _252
REMARK  104  A    between atoms: _252  and  _253
REMARK  105  A    between atoms: _255  and  _257
REMARK  106  A    between atoms: _257  and  _258
REMARK  107  A    between atoms: _257  and  _260
REMARK  108  A    between atoms: _260  and  _261
REMARK  109  A    between atoms: _261  and  _262
REMARK  110  A    between atoms: _265  and  _267
REMARK  111  A    between atoms: _267  and  _268
REMARK  112  A    between atoms: _267  and  _270
REMARK  113  A    between atoms: _270  and  _271
REMARK  114  A    between atoms: _271  and  _272
REMARK  115  A    between atoms: _272  and  _273
REMARK  116  A    between atoms: _273  and  _274
REMARK  117  A    between atoms: _278  and  _280
REMARK  118  A    between atoms: _280  and  _281
REMARK  119  A    between atoms: _280  and  _283
REMARK  120  A    between atoms: _283  and  _284
REMARK  121  A    between atoms: _287  and  _289
REMARK  122  A    between atoms: _289  and  _290
REMARK  123  A    between atoms: _289  and  _292
REMARK  124  A    between atoms: _292  and  _293
REMARK  125  A    between atoms: _298  and  _300
REMARK  126  A    between atoms: _300  and  _301
REMARK  127  A    between atoms: _300  and  _303
REMARK  128  A    between atoms: _303  and  _304
REMARK  129  A    between atoms: _307  and  _309
REMARK  130  A    between atoms: _309  and  _310
REMARK  131  A    between atoms: _309  and  _312
REMARK  132  A    between atoms: _315  and  _317
REMARK  133  A    between atoms: _317  and  _318
REMARK  134  A    between atoms: _317  and  _320
REMARK  135  A    between atoms: _320  and  _321
REMARK  136  A    between atoms: _323  and  _325
REMARK  137  A    between atoms: _325  and  _326
REMARK  138  A    between atoms: _328  and  _330
REMARK  139  A    between atoms: _330  and  _331
REMARK  140  A    between atoms: _330  and  _333
REMARK  141  A    between atoms: _333  and  _334
REMARK                            x       y       z     vdW  Elec       q    Type
REMARK                         _______ _______ _______ _____ _____    ______ ____
ROOT
ATOM      1  C   ASN A   1       9.255  -1.637  -8.285  0.00  0.00    +0.239 C 
ATOM      2  N   ASP A   2       9.795  -2.062  -7.159  0.00  0.00    -0.298 N 
ATOM      3  H   ASP A   2       9.165  -2.371  -6.392  0.00  0.00    +0.150 HD
ATOM      4  O   ASN A   1       9.939  -1.257  -9.221  0.00  0.00    -0.274 OA
ENDROOT
BRANCH   1   5
ATOM      5  CA  ASN A   1       7.732  -1.588  -8.329  0.00  0.00    +0.154 C 
BRANCH   5   6
ATOM      6  N   ASN A   1       7.344  -1.303  -9.685  0.00  0.00    -0.238 NA
ATOM      7  H   ASN A   1       8.013  -1.477 -10.462  0.00  0.00    +0.142 HD
ENDBRANCH   5   6
BRANCH   5   8
ATOM      8  CB  ASN A   1       7.048  -2.839  -7.810  0.00  0.00    +0.111 C 
BRANCH   8   9
ATOM      9  CG  ASN A   1       6.810  -2.817  -6.318  0.00  0.00    +0.221 C 
ATOM     10  OD1 ASN A   1       7.747  -2.909  -5.494  0.00  0.00    -0.275 OA
ATOM     11  ND2 ASN A   1       5.541  -2.680  -5.930  0.00  0.00    -0.329 N 
ATOM     12 HD21 ASN A   1       5.308  -2.647  -4.917  0.00  0.00    +0.145 HD
ATOM     13 HD22 ASN A   1       4.785  -2.606  -6.640  0.00  0.00    +0.145 HD
ENDBRANCH   8   9
ENDBRANCH   5   8
ENDBRANCH   1   5
BRANCH   2  14
ATOM     14  CA  ASP A   2      11.201  -2.116  -6.947  0.00  0.00    +0.148 C 
BRANCH  14  15
ATOM     15  C   ASP A   2      11.864  -3.269  -7.669  0.00  0.00    +0.227 C 
ATOM     16  O   ASP A   2      11.376  -4.393  -7.621  0.00  0.00    -0.286 OA
ENDBRANCH  14  15
BRANCH  14  17
ATOM     17  CB  ASP A   2      11.437  -2.277  -5.406  0.00  0.00    +0.142 C 
BRANCH  17  18
ATOM     18  CG  ASP A   2      12.925  -2.383  -5.129  0.00  0.00    +0.367 C 
ATOM     19  OD2 ASP A   2      13.414  -3.519  -4.968  0.00  0.00    -0.246 OA
ATOM     20  OD1 ASP A   2      13.582  -1.310  -5.105  0.00  0.00    -0.246 OA
ENDBRANCH  17  18
ENDBRANCH  14  17
ENDBRANCH   2  14
TORSDOF 8
REMARK  Name = ../refined-set-2016/2yln/2yln_pocket.pdb
REMARK  141 active torsions:
REMARK  status: ('A' for Active; 'I' for Inactive)
REMARK    1  A    between atoms: _1  and  _3
REMARK    2  A    between atoms: _3  and  _4
REMARK    3  A    between atoms: _3  and  _6
REMARK    4  A    between atoms: _6  and  _7
REMARK    5  A    between atoms: _7  and  _8
REMARK    6  A    between atoms: _11  and  _13
REMARK    7  A    between atoms: _13  and  _14
REMARK    8  A    between atoms: _13  and  _16
REMARK    9  A    between atoms: _16  and  _17
REMARK   10  A    between atoms: _22  and  _23
REMARK   11  A    between atoms: _25  and  _27
REMARK   12  A    between atoms: _27  and  _28
REMARK   13  A    between atoms: _27  and  _30
REMARK   14  A    between atoms: _30  and  _31
REMARK   15  A    between atoms: _37  and  _39
REMARK   16  A    between atoms: _39  and  _40
REMARK   17  A    between atoms: _39  and  _42
REMARK   18  A    between atoms: _42  and  _43
REMARK   19  A    between atoms: _46  and  _48
REMARK   20  A    between atoms: _48  and  _49
REMARK   21  A    between atoms: _48  and  _51
REMARK   22  A    between atoms: _51  and  _52
REMARK   23  A    between atoms: _55  and  _57
REMARK   24  A    between atoms: _57  and  _58
REMARK   25  A    between atoms: _57  and  _60
REMARK   26  A    between atoms: _60  and  _61
REMARK   27  A    between atoms: _71  and  _73
REMARK   28  A    between atoms: _73  and  _74
REMARK   29  A    between atoms: _73  and  _76
REMARK   30  A    between atoms: _76  and  _77
REMARK   31  A    between atoms: _80  and  _82
REMARK   32  A    between atoms: _82  and  _83
REMARK   33  A    between atoms: _82  and  _85
REMARK   34  A    between atoms: _85  and  _86
REMARK   35  A    between atoms: _86  and  _87
REMARK   36  A    between atoms: _89  and  _91
REMARK   37  A    between atoms: _91  and  _92
REMARK   38  A    between atoms: _91  and  _94
REMARK   39  A    between atoms: _94  and  _95
REMARK   40  A    between atoms: _95  and  _96
REMARK   41  A    between atoms: _98  and  _100
REMARK   42  A    between atoms: _100  and  _101
REMARK   43  A    between atoms: _100  and  _103
REMARK   44  A    between atoms: _106  and  _108
REMARK   45  A    between atoms: _108  and  _109
REMARK   46  A    between atoms: _112  and  _114
REMARK   47  A    between atoms: _114  and  _115
REMARK   48  A    between atoms: _114  and  _117
REMARK   49  A    between atoms: _117  and  _118
REMARK   50  A    between atoms: _123  and  _125
REMARK   51  A    between atoms: _125  and  _126
REMARK   52  A    between atoms: _125  and  _128
REMARK   53  A    between atoms: _128  and  _129
REMARK   54  A    between atoms: _129  and  _130
REMARK   55  A    between atoms: _135  and  _137
REMARK   56  A    between atoms: _137  and  _138
REMARK   57  A    between atoms: _137  and  _140
REMARK   58  A    between atoms: _143  and  _145
REMARK   59  A    between atoms: _145  and  _146
REMARK   60  A    between atoms: _148  and  _150
REMARK   61  A    between atoms: _150  and  _151
REMARK   62  A    between atoms: _150  and  _153
REMARK   63  A    between atoms: _153  and  _154
REMARK   64  A    between atoms: _157  and  _159
REMARK   65  A    between atoms: _159  and  _160
REMARK   66  A    between atoms: _159  and  _162
REMARK   67  A    between atoms: _162  and  _163
REMARK   68  A    between atoms: _166  and  _168
REMARK   69  A    between atoms: _168  and  _169
REMARK   70  A    between atoms: _168  and  _171
REMARK   71  A    between atoms: _171  and  _172
REMARK   72  A    between atoms: _174  and  _176
REMARK   73  A    between atoms: _176  and  _177
REMARK   74  A    between atoms: _176  and  _179
REMARK   75  A    between atoms: _179  and  _180
REMARK   76  A    between atoms: _180  and  _181
REMARK   77  A    between atoms: _181  and  _182
REMARK   78  A    between atoms: _191  and  _193
REMARK   79  A    between atoms: _193  and  _194
REMARK   80  A    between atoms: _193  and  _196
REMARK   81  A    between atoms: _196  and  _197
REMARK   82  A    between atoms: _199  and  _201
REMARK   83  A    between atoms: _201  and  _202
REMARK   84  A    between atoms: _201  and  _204
REMARK   85  A    between atoms: _204  and  _205
REMARK   86  A    between atoms: _208  and  _210
REMARK   87  A    between atoms: _210  and  _211
REMARK   88  A    between atoms: _210  and  _213
REMARK   89  A    between atoms: _213  and  _214
REMARK   90  A    between atoms: _217  and  _219
REMARK   91  A    between atoms: _219  and  _220
REMARK   92  A    between atoms: _219  and  _222
REMARK   93  A    between atoms: _222  and  _223
REMARK   94  A    between atoms: _225  and  _227
REMARK   95  A    between atoms: _227  and  _228
REMARK   96  A    between atoms: _227  and  _230
REMARK   97  A    between atoms: _230  and  _231
REMARK   98  A    between atoms: _236  and  _238
REMARK   99  A    between atoms: _238  and  _239
REMARK  100  A    between atoms: _238  and  _241
REMARK  101  A    between atoms: _241  and  _242
REMARK  102  A    between atoms: _247  and  _248
REMARK  103  A    between atoms: _250  and  _252
REMARK  104  A    between atoms: _252  and  _253
REMARK  105  A    between atoms: _255  and  _257
REMARK  106  A    between atoms: _257  and  _258
REMARK  107  A    between atoms: _257  and  _260
REMARK  108  A    between atoms: _260  and  _261
REMARK  109  A    between atoms: _261  and  _262
REMARK  110  A    between atoms: _265  and  _267
REMARK  111  A    between atoms: _267  and  _268
REMARK  112  A    between atoms: _267  and  _270
REMARK  113  A    between atoms: _270  and  _271
REMARK  114  A    between atoms: _271  and  _272
REMARK  115  A    between atoms: _272  and  _273
REMARK  116  A    between atoms: _273  and  _274
REMARK  117  A    between atoms: _278  and  _280
REMARK  118  A    between atoms: _280  and  _281
REMARK  119  A    between atoms: _280  and  _283
REMARK  120  A    between atoms: _283  and  _284
REMARK  121  A    between atoms: _287  and  _289
REMARK  122  A    between atoms: _289  and  _290
REMARK  123  A    between atoms: _289  and  _292
REMARK  124  A    between atoms: _292  and  _293
REMARK  125  A    between atoms: _298  and  _300
REMARK  126  A    between atoms: _300  and  _301
REMARK  127  A    between atoms: _300  and  _303
REMARK  128  A    between atoms: _303  and  _304
REMARK  129  A    between atoms: _307  and  _309
REMARK  130  A    between atoms: _309  and  _310
REMARK  131  A    between atoms: _309  and  _312
REMARK  132  A    between atoms: _315  and  _317
REMARK  133  A    between atoms: _317  and  _318
REMARK  134  A    between atoms: _317  and  _320
REMARK  135  A    between atoms: _320  and  _321
REMARK  136  A    between atoms: _323  and  _325
REMARK  137  A    between atoms: _325  and  _326
REMARK  138  A    between atoms: _328  and  _330
REMARK  139  A    between atoms: _330  and  _331
REMARK  140  A    between atoms: _330  and  _333
REMARK  141  A    between atoms: _333  and  _334
REMARK                            x       y       z     vdW  Elec       q    Type
REMARK                         _______ _______ _______ _____ _____    ______ ____
ROOT
ATOM      1  CA  VAL A   1      16.472   6.238  -4.375  0.00  0.00    +0.133 C 
ENDROOT
BRANCH   1   2
ATOM      2  CB  VAL A   1      14.928   6.026  -4.286  0.00  0.00    +0.023 C 
ATOM      3  CG2 VAL A   1      14.347   6.449  -2.920  0.00  0.00    +0.002 C 
ATOM      4  CG1 VAL A   1      14.156   6.666  -5.459  0.00  0.00    +0.002 C 
ENDBRANCH   1   2
BRANCH   1   5
ATOM      5  N   VAL A   1      16.989   5.659  -5.583  0.00  0.00    -0.239 NA
ATOM      6  H   VAL A   1      16.498   4.814  -5.938  0.00  0.00    +0.142 HD
ENDBRANCH   1   5
BRANCH   1   7
ATOM      7  C   VAL A   1      17.159   5.660  -3.164  0.00  0.00    +0.224 C 
ATOM      8  O   VAL A   1      17.309   4.459  -3.114  0.00  0.00    -0.287 OA
ENDBRANCH   1   7
TORSDOF 3
REMARK  Name = ../refined-set-2016/2yln/2yln_pocket.pdb
REMARK  141 active torsions:
REMARK  status: ('A' for Active; 'I' for Inactive)
REMARK    1  A    between atoms: _1  and  _3
REMARK    2  A    between atoms: _3  and  _4
REMARK    3  A    between atoms: _3  and  _6
REMARK    4  A    between atoms: _6  and  _7
REMARK    5  A    between atoms: _7  and  _8
REMARK    6  A    between atoms: _11  and  _13
REMARK    7  A    between atoms: _13  and  _14
REMARK    8  A    between atoms: _13  and  _16
REMARK    9  A    between atoms: _16  and  _17
REMARK   10  A    between atoms: _22  and  _23
REMARK   11  A    between atoms: _25  and  _27
REMARK   12  A    between atoms: _27  and  _28
REMARK   13  A    between atoms: _27  and  _30
REMARK   14  A    between atoms: _30  and  _31
REMARK   15  A    between atoms: _37  and  _39
REMARK   16  A    between atoms: _39  and  _40
REMARK   17  A    between atoms: _39  and  _42
REMARK   18  A    between atoms: _42  and  _43
REMARK   19  A    between atoms: _46  and  _48
REMARK   20  A    between atoms: _48  and  _49
REMARK   21  A    between atoms: _48  and  _51
REMARK   22  A    between atoms: _51  and  _52
REMARK   23  A    between atoms: _55  and  _57
REMARK   24  A    between atoms: _57  and  _58
REMARK   25  A    between atoms: _57  and  _60
REMARK   26  A    between atoms: _60  and  _61
REMARK   27  A    between atoms: _71  and  _73
REMARK   28  A    between atoms: _73  and  _74
REMARK   29  A    between atoms: _73  and  _76
REMARK   30  A    between atoms: _76  and  _77
REMARK   31  A    between atoms: _80  and  _82
REMARK   32  A    between atoms: _82  and  _83
REMARK   33  A    between atoms: _82  and  _85
REMARK   34  A    between atoms: _85  and  _86
REMARK   35  A    between atoms: _86  and  _87
REMARK   36  A    between atoms: _89  and  _91
REMARK   37  A    between atoms: _91  and  _92
REMARK   38  A    between atoms: _91  and  _94
REMARK   39  A    between atoms: _94  and  _95
REMARK   40  A    between atoms: _95  and  _96
REMARK   41  A    between atoms: _98  and  _100
REMARK   42  A    between atoms: _100  and  _101
REMARK   43  A    between atoms: _100  and  _103
REMARK   44  A    between atoms: _106  and  _108
REMARK   45  A    between atoms: _108  and  _109
REMARK   46  A    between atoms: _112  and  _114
REMARK   47  A    between atoms: _114  and  _115
REMARK   48  A    between atoms: _114  and  _117
REMARK   49  A    between atoms: _117  and  _118
REMARK   50  A    between atoms: _123  and  _125
REMARK   51  A    between atoms: _125  and  _126
REMARK   52  A    between atoms: _125  and  _128
REMARK   53  A    between atoms: _128  and  _129
REMARK   54  A    between atoms: _129  and  _130
REMARK   55  A    between atoms: _135  and  _137
REMARK   56  A    between atoms: _137  and  _138
REMARK   57  A    between atoms: _137  and  _140
REMARK   58  A    between atoms: _143  and  _145
REMARK   59  A    between atoms: _145  and  _146
REMARK   60  A    between atoms: _148  and  _150
REMARK   61  A    between atoms: _150  and  _151
REMARK   62  A    between atoms: _150  and  _153
REMARK   63  A    between atoms: _153  and  _154
REMARK   64  A    between atoms: _157  and  _159
REMARK   65  A    between atoms: _159  and  _160
REMARK   66  A    between atoms: _159  and  _162
REMARK   67  A    between atoms: _162  and  _163
REMARK   68  A    between atoms: _166  and  _168
REMARK   69  A    between atoms: _168  and  _169
REMARK   70  A    between atoms: _168  and  _171
REMARK   71  A    between atoms: _171  and  _172
REMARK   72  A    between atoms: _174  and  _176
REMARK   73  A    between atoms: _176  and  _177
REMARK   74  A    between atoms: _176  and  _179
REMARK   75  A    between atoms: _179  and  _180
REMARK   76  A    between atoms: _180  and  _181
REMARK   77  A    between atoms: _181  and  _182
REMARK   78  A    between atoms: _191  and  _193
REMARK   79  A    between atoms: _193  and  _194
REMARK   80  A    between atoms: _193  and  _196
REMARK   81  A    between atoms: _196  and  _197
REMARK   82  A    between atoms: _199  and  _201
REMARK   83  A    between atoms: _201  and  _202
REMARK   84  A    between atoms: _201  and  _204
REMARK   85  A    between atoms: _204  and  _205
REMARK   86  A    between atoms: _208  and  _210
REMARK   87  A    between atoms: _210  and  _211
REMARK   88  A    between atoms: _210  and  _213
REMARK   89  A    between atoms: _213  and  _214
REMARK   90  A    between atoms: _217  and  _219
REMARK   91  A    between atoms: _219  and  _220
REMARK   92  A    between atoms: _219  and  _222
REMARK   93  A    between atoms: _222  and  _223
REMARK   94  A    between atoms: _225  and  _227
REMARK   95  A    between atoms: _227  and  _228
REMARK   96  A    between atoms: _227  and  _230
REMARK   97  A    between atoms: _230  and  _231
REMARK   98  A    between atoms: _236  and  _238
REMARK   99  A    between atoms: _238  and  _239
REMARK  100  A    between atoms: _238  and  _241
REMARK  101  A    between atoms: _241  and  _242
REMARK  102  A    between atoms: _247  and  _248
REMARK  103  A    between atoms: _250  and  _252
REMARK  104  A    between atoms: _252  and  _253
REMARK  105  A    between atoms: _255  and  _257
REMARK  106  A    between atoms: _257  and  _258
REMARK  107  A    between atoms: _257  and  _260
REMARK  108  A    between atoms: _260  and  _261
REMARK  109  A    between atoms: _261  and  _262
REMARK  110  A    between atoms: _265  and  _267
REMARK  111  A    between atoms: _267  and  _268
REMARK  112  A    between atoms: _267  and  _270
REMARK  113  A    between atoms: _270  and  _271
REMARK  114  A    between atoms: _271  and  _272
REMARK  115  A    between atoms: _272  and  _273
REMARK  116  A    between atoms: _273  and  _274
REMARK  117  A    between atoms: _278  and  _280
REMARK  118  A    between atoms: _280  and  _281
REMARK  119  A    between atoms: _280  and  _283
REMARK  120  A    between atoms: _283  and  _284
REMARK  121  A    between atoms: _287  and  _289
REMARK  122  A    between atoms: _289  and  _290
REMARK  123  A    between atoms: _289  and  _292
REMARK  124  A    between atoms: _292  and  _293
REMARK  125  A    between atoms: _298  and  _300
REMARK  126  A    between atoms: _300  and  _301
REMARK  127  A    between atoms: _300  and  _303
REMARK  128  A    between atoms: _303  and  _304
REMARK  129  A    between atoms: _307  and  _309
REMARK  130  A    between atoms: _309  and  _310
REMARK  131  A    between atoms: _309  and  _312
REMARK  132  A    between atoms: _315  and  _317
REMARK  133  A    between atoms: _317  and  _318
REMARK  134  A    between atoms: _317  and  _320
REMARK  135  A    between atoms: _320  and  _321
REMARK  136  A    between atoms: _323  and  _325
REMARK  137  A    between atoms: _325  and  _326
REMARK  138  A    between atoms: _328  and  _330
REMARK  139  A    between atoms: _330  and  _331
REMARK  140  A    between atoms: _330  and  _333
REMARK  141  A    between atoms: _333  and  _334
REMARK                            x       y       z     vdW  Elec       q    Type
REMARK                         _______ _______ _______ _____ _____    ______ ____
ROOT
ATOM      1  C   SER A   1      16.353   4.620   2.931  0.00  0.00    +0.241 C 
ATOM      2  N   GLY A   2      15.663   5.272   3.845  0.00  0.00    -0.296 N 
ATOM      3  H   GLY A   2      14.757   5.707   3.577  0.00  0.00    +0.150 HD
ATOM      4  O   SER A   1      17.459   4.129   3.135  0.00  0.00    -0.274 OA
ENDROOT
BRANCH   1   5
ATOM      5  CA  SER A   1      15.731   4.499   1.564  0.00  0.00    +0.174 C 
BRANCH   5   6
ATOM      6  N   SER A   1      16.733   4.689   0.498  0.00  0.00    -0.236 NA
ATOM      7  H   SER A   1      17.218   3.863   0.093  0.00  0.00    +0.142 HD
ENDBRANCH   5   6
BRANCH   5   8
ATOM      8  CB  SER A   1      15.094   3.114   1.467  0.00  0.00    +0.163 C 
BRANCH   8   9
ATOM      9  OG  SER A   1      14.311   2.966   0.294  0.00  0.00    -0.380 OA
ATOM     10  H   SER A   1      14.884   3.098  -0.503  0.00  0.00    +0.211 HD
ENDBRANCH   8   9
ENDBRANCH   5   8
ENDBRANCH   1   5
BRANCH   2  11
ATOM     11  CA  GLY A   2      16.119   5.399   5.187  0.00  0.00    +0.163 C 
BRANCH  11  12
ATOM     12  C   GLY A   2      14.972   5.402   6.169  0.00  0.00    +0.229 C 
ATOM     13  O   GLY A   2      13.817   5.301   5.795  0.00  0.00    -0.286 OA
ENDBRANCH  11  12
ENDBRANCH   2  11
TORSDOF 6
REMARK  Name = ../refined-set-2016/2yln/2yln_pocket.pdb
REMARK  141 active torsions:
REMARK  status: ('A' for Active; 'I' for Inactive)
REMARK    1  A    between atoms: _1  and  _3
REMARK    2  A    between atoms: _3  and  _4
REMARK    3  A    between atoms: _3  and  _6
REMARK    4  A    between atoms: _6  and  _7
REMARK    5  A    between atoms: _7  and  _8
REMARK    6  A    between atoms: _11  and  _13
REMARK    7  A    between atoms: _13  and  _14
REMARK    8  A    between atoms: _13  and  _16
REMARK    9  A    between atoms: _16  and  _17
REMARK   10  A    between atoms: _22  and  _23
REMARK   11  A    between atoms: _25  and  _27
REMARK   12  A    between atoms: _27  and  _28
REMARK   13  A    between atoms: _27  and  _30
REMARK   14  A    between atoms: _30  and  _31
REMARK   15  A    between atoms: _37  and  _39
REMARK   16  A    between atoms: _39  and  _40
REMARK   17  A    between atoms: _39  and  _42
REMARK   18  A    between atoms: _42  and  _43
REMARK   19  A    between atoms: _46  and  _48
REMARK   20  A    between atoms: _48  and  _49
REMARK   21  A    between atoms: _48  and  _51
REMARK   22  A    between atoms: _51  and  _52
REMARK   23  A    between atoms: _55  and  _57
REMARK   24  A    between atoms: _57  and  _58
REMARK   25  A    between atoms: _57  and  _60
REMARK   26  A    between atoms: _60  and  _61
REMARK   27  A    between atoms: _71  and  _73
REMARK   28  A    between atoms: _73  and  _74
REMARK   29  A    between atoms: _73  and  _76
REMARK   30  A    between atoms: _76  and  _77
REMARK   31  A    between atoms: _80  and  _82
REMARK   32  A    between atoms: _82  and  _83
REMARK   33  A    between atoms: _82  and  _85
REMARK   34  A    between atoms: _85  and  _86
REMARK   35  A    between atoms: _86  and  _87
REMARK   36  A    between atoms: _89  and  _91
REMARK   37  A    between atoms: _91  and  _92
REMARK   38  A    between atoms: _91  and  _94
REMARK   39  A    between atoms: _94  and  _95
REMARK   40  A    between atoms: _95  and  _96
REMARK   41  A    between atoms: _98  and  _100
REMARK   42  A    between atoms: _100  and  _101
REMARK   43  A    between atoms: _100  and  _103
REMARK   44  A    between atoms: _106  and  _108
REMARK   45  A    between atoms: _108  and  _109
REMARK   46  A    between atoms: _112  and  _114
REMARK   47  A    between atoms: _114  and  _115
REMARK   48  A    between atoms: _114  and  _117
REMARK   49  A    between atoms: _117  and  _118
REMARK   50  A    between atoms: _123  and  _125
REMARK   51  A    between atoms: _125  and  _126
REMARK   52  A    between atoms: _125  and  _128
REMARK   53  A    between atoms: _128  and  _129
REMARK   54  A    between atoms: _129  and  _130
REMARK   55  A    between atoms: _135  and  _137
REMARK   56  A    between atoms: _137  and  _138
REMARK   57  A    between atoms: _137  and  _140
REMARK   58  A    between atoms: _143  and  _145
REMARK   59  A    between atoms: _145  and  _146
REMARK   60  A    between atoms: _148  and  _150
REMARK   61  A    between atoms: _150  and  _151
REMARK   62  A    between atoms: _150  and  _153
REMARK   63  A    between atoms: _153  and  _154
REMARK   64  A    between atoms: _157  and  _159
REMARK   65  A    between atoms: _159  and  _160
REMARK   66  A    between atoms: _159  and  _162
REMARK   67  A    between atoms: _162  and  _163
REMARK   68  A    between atoms: _166  and  _168
REMARK   69  A    between atoms: _168  and  _169
REMARK   70  A    between atoms: _168  and  _171
REMARK   71  A    between atoms: _171  and  _172
REMARK   72  A    between atoms: _174  and  _176
REMARK   73  A    between atoms: _176  and  _177
REMARK   74  A    between atoms: _176  and  _179
REMARK   75  A    between atoms: _179  and  _180
REMARK   76  A    between atoms: _180  and  _181
REMARK   77  A    between atoms: _181  and  _182
REMARK   78  A    between atoms: _191  and  _193
REMARK   79  A    between atoms: _193  and  _194
REMARK   80  A    between atoms: _193  and  _196
REMARK   81  A    between atoms: _196  and  _197
REMARK   82  A    between atoms: _199  and  _201
REMARK   83  A    between atoms: _201  and  _202
REMARK   84  A    between atoms: _201  and  _204
REMARK   85  A    between atoms: _204  and  _205
REMARK   86  A    between atoms: _208  and  _210
REMARK   87  A    between atoms: _210  and  _211
REMARK   88  A    between atoms: _210  and  _213
REMARK   89  A    between atoms: _213  and  _214
REMARK   90  A    between atoms: _217  and  _219
REMARK   91  A    between atoms: _219  and  _220
REMARK   92  A    between atoms: _219  and  _222
REMARK   93  A    between atoms: _222  and  _223
REMARK   94  A    between atoms: _225  and  _227
REMARK   95  A    between atoms: _227  and  _228
REMARK   96  A    between atoms: _227  and  _230
REMARK   97  A    between atoms: _230  and  _231
REMARK   98  A    between atoms: _236  and  _238
REMARK   99  A    between atoms: _238  and  _239
REMARK  100  A    between atoms: _238  and  _241
REMARK  101  A    between atoms: _241  and  _242
REMARK  102  A    between atoms: _247  and  _248
REMARK  103  A    between atoms: _250  and  _252
REMARK  104  A    between atoms: _252  and  _253
REMARK  105  A    between atoms: _255  and  _257
REMARK  106  A    between atoms: _257  and  _258
REMARK  107  A    between atoms: _257  and  _260
REMARK  108  A    between atoms: _260  and  _261
REMARK  109  A    between atoms: _261  and  _262
REMARK  110  A    between atoms: _265  and  _267
REMARK  111  A    between atoms: _267  and  _268
REMARK  112  A    between atoms: _267  and  _270
REMARK  113  A    between atoms: _270  and  _271
REMARK  114  A    between atoms: _271  and  _272
REMARK  115  A    between atoms: _272  and  _273
REMARK  116  A    between atoms: _273  and  _274
REMARK  117  A    between atoms: _278  and  _280
REMARK  118  A    between atoms: _280  and  _281
REMARK  119  A    between atoms: _280  and  _283
REMARK  120  A    between atoms: _283  and  _284
REMARK  121  A    between atoms: _287  and  _289
REMARK  122  A    between atoms: _289  and  _290
REMARK  123  A    between atoms: _289  and  _292
REMARK  124  A    between atoms: _292  and  _293
REMARK  125  A    between atoms: _298  and  _300
REMARK  126  A    between atoms: _300  and  _301
REMARK  127  A    between atoms: _300  and  _303
REMARK  128  A    between atoms: _303  and  _304
REMARK  129  A    between atoms: _307  and  _309
REMARK  130  A    between atoms: _309  and  _310
REMARK  131  A    between atoms: _309  and  _312
REMARK  132  A    between atoms: _315  and  _317
REMARK  133  A    between atoms: _317  and  _318
REMARK  134  A    between atoms: _317  and  _320
REMARK  135  A    between atoms: _320  and  _321
REMARK  136  A    between atoms: _323  and  _325
REMARK  137  A    between atoms: _325  and  _326
REMARK  138  A    between atoms: _328  and  _330
REMARK  139  A    between atoms: _330  and  _331
REMARK  140  A    between atoms: _330  and  _333
REMARK  141  A    between atoms: _333  and  _334
REMARK                            x       y       z     vdW  Elec       q    Type
REMARK                         _______ _______ _______ _____ _____    ______ ____
ROOT
ATOM      1  CA  ILE A   1      11.548   8.255   8.103  0.00  0.00    +0.133 C 
ENDROOT
BRANCH   1   2
ATOM      2  N   ILE A   1      12.294   7.029   8.317  0.00  0.00    -0.239 NA
ATOM      3  H   ILE A   1      11.757   6.148   8.451  0.00  0.00    +0.142 HD
ENDBRANCH   1   2
BRANCH   1   4
ATOM      4  C   ILE A   1      10.879   8.677   9.417  0.00  0.00    +0.224 C 
ATOM      5  O   ILE A   1      10.252   7.864  10.083  0.00  0.00    -0.287 OA
ENDBRANCH   1   4
BRANCH   1   6
ATOM      6  CB  ILE A   1      10.458   8.086   7.029  0.00  0.00    +0.023 C 
ATOM      7  CG2 ILE A   1       9.852   9.426   6.684  0.00  0.00    +0.002 C 
BRANCH   6   8
ATOM      8  CG1 ILE A   1      10.955   7.346   5.776  0.00  0.00    +0.002 C 
ATOM      9  CD1 ILE A   1      12.073   8.072   5.040  0.00  0.00    +0.000 C 
ENDBRANCH   6   8
ENDBRANCH   1   6
TORSDOF 4
REMARK  Name = ../refined-set-2016/2yln/2yln_pocket.pdb
REMARK  141 active torsions:
REMARK  status: ('A' for Active; 'I' for Inactive)
REMARK    1  A    between atoms: _1  and  _3
REMARK    2  A    between atoms: _3  and  _4
REMARK    3  A    between atoms: _3  and  _6
REMARK    4  A    between atoms: _6  and  _7
REMARK    5  A    between atoms: _7  and  _8
REMARK    6  A    between atoms: _11  and  _13
REMARK    7  A    between atoms: _13  and  _14
REMARK    8  A    between atoms: _13  and  _16
REMARK    9  A    between atoms: _16  and  _17
REMARK   10  A    between atoms: _22  and  _23
REMARK   11  A    between atoms: _25  and  _27
REMARK   12  A    between atoms: _27  and  _28
REMARK   13  A    between atoms: _27  and  _30
REMARK   14  A    between atoms: _30  and  _31
REMARK   15  A    between atoms: _37  and  _39
REMARK   16  A    between atoms: _39  and  _40
REMARK   17  A    between atoms: _39  and  _42
REMARK   18  A    between atoms: _42  and  _43
REMARK   19  A    between atoms: _46  and  _48
REMARK   20  A    between atoms: _48  and  _49
REMARK   21  A    between atoms: _48  and  _51
REMARK   22  A    between atoms: _51  and  _52
REMARK   23  A    between atoms: _55  and  _57
REMARK   24  A    between atoms: _57  and  _58
REMARK   25  A    between atoms: _57  and  _60
REMARK   26  A    between atoms: _60  and  _61
REMARK   27  A    between atoms: _71  and  _73
REMARK   28  A    between atoms: _73  and  _74
REMARK   29  A    between atoms: _73  and  _76
REMARK   30  A    between atoms: _76  and  _77
REMARK   31  A    between atoms: _80  and  _82
REMARK   32  A    between atoms: _82  and  _83
REMARK   33  A    between atoms: _82  and  _85
REMARK   34  A    between atoms: _85  and  _86
REMARK   35  A    between atoms: _86  and  _87
REMARK   36  A    between atoms: _89  and  _91
REMARK   37  A    between atoms: _91  and  _92
REMARK   38  A    between atoms: _91  and  _94
REMARK   39  A    between atoms: _94  and  _95
REMARK   40  A    between atoms: _95  and  _96
REMARK   41  A    between atoms: _98  and  _100
REMARK   42  A    between atoms: _100  and  _101
REMARK   43  A    between atoms: _100  and  _103
REMARK   44  A    between atoms: _106  and  _108
REMARK   45  A    between atoms: _108  and  _109
REMARK   46  A    between atoms: _112  and  _114
REMARK   47  A    between atoms: _114  and  _115
REMARK   48  A    between atoms: _114  and  _117
REMARK   49  A    between atoms: _117  and  _118
REMARK   50  A    between atoms: _123  and  _125
REMARK   51  A    between atoms: _125  and  _126
REMARK   52  A    between atoms: _125  and  _128
REMARK   53  A    between atoms: _128  and  _129
REMARK   54  A    between atoms: _129  and  _130
REMARK   55  A    between atoms: _135  and  _137
REMARK   56  A    between atoms: _137  and  _138
REMARK   57  A    between atoms: _137  and  _140
REMARK   58  A    between atoms: _143  and  _145
REMARK   59  A    between atoms: _145  and  _146
REMARK   60  A    between atoms: _148  and  _150
REMARK   61  A    between atoms: _150  and  _151
REMARK   62  A    between atoms: _150  and  _153
REMARK   63  A    between atoms: _153  and  _154
REMARK   64  A    between atoms: _157  and  _159
REMARK   65  A    between atoms: _159  and  _160
REMARK   66  A    between atoms: _159  and  _162
REMARK   67  A    between atoms: _162  and  _163
REMARK   68  A    between atoms: _166  and  _168
REMARK   69  A    between atoms: _168  and  _169
REMARK   70  A    between atoms: _168  and  _171
REMARK   71  A    between atoms: _171  and  _172
REMARK   72  A    between atoms: _174  and  _176
REMARK   73  A    between atoms: _176  and  _177
REMARK   74  A    between atoms: _176  and  _179
REMARK   75  A    between atoms: _179  and  _180
REMARK   76  A    between atoms: _180  and  _181
REMARK   77  A    between atoms: _181  and  _182
REMARK   78  A    between atoms: _191  and  _193
REMARK   79  A    between atoms: _193  and  _194
REMARK   80  A    between atoms: _193  and  _196
REMARK   81  A    between atoms: _196  and  _197
REMARK   82  A    between atoms: _199  and  _201
REMARK   83  A    between atoms: _201  and  _202
REMARK   84  A    between atoms: _201  and  _204
REMARK   85  A    between atoms: _204  and  _205
REMARK   86  A    between atoms: _208  and  _210
REMARK   87  A    between atoms: _210  and  _211
REMARK   88  A    between atoms: _210  and  _213
REMARK   89  A    between atoms: _213  and  _214
REMARK   90  A    between atoms: _217  and  _219
REMARK   91  A    between atoms: _219  and  _220
REMARK   92  A    between atoms: _219  and  _222
REMARK   93  A    between atoms: _222  and  _223
REMARK   94  A    between atoms: _225  and  _227
REMARK   95  A    between atoms: _227  and  _228
REMARK   96  A    between atoms: _227  and  _230
REMARK   97  A    between atoms: _230  and  _231
REMARK   98  A    between atoms: _236  and  _238
REMARK   99  A    between atoms: _238  and  _239
REMARK  100  A    between atoms: _238  and  _241
REMARK  101  A    between atoms: _241  and  _242
REMARK  102  A    between atoms: _247  and  _248
REMARK  103  A    between atoms: _250  and  _252
REMARK  104  A    between atoms: _252  and  _253
REMARK  105  A    between atoms: _255  and  _257
REMARK  106  A    between atoms: _257  and  _258
REMARK  107  A    between atoms: _257  and  _260
REMARK  108  A    between atoms: _260  and  _261
REMARK  109  A    between atoms: _261  and  _262
REMARK  110  A    between atoms: _265  and  _267
REMARK  111  A    between atoms: _267  and  _268
REMARK  112  A    between atoms: _267  and  _270
REMARK  113  A    between atoms: _270  and  _271
REMARK  114  A    between atoms: _271  and  _272
REMARK  115  A    between atoms: _272  and  _273
REMARK  116  A    between atoms: _273  and  _274
REMARK  117  A    between atoms: _278  and  _280
REMARK  118  A    between atoms: _280  and  _281
REMARK  119  A    between atoms: _280  and  _283
REMARK  120  A    between atoms: _283  and  _284
REMARK  121  A    between atoms: _287  and  _289
REMARK  122  A    between atoms: _289  and  _290
REMARK  123  A    between atoms: _289  and  _292
REMARK  124  A    between atoms: _292  and  _293
REMARK  125  A    between atoms: _298  and  _300
REMARK  126  A    between atoms: _300  and  _301
REMARK  127  A    between atoms: _300  and  _303
REMARK  128  A    between atoms: _303  and  _304
REMARK  129  A    between atoms: _307  and  _309
REMARK  130  A    between atoms: _309  and  _310
REMARK  131  A    between atoms: _309  and  _312
REMARK  132  A    between atoms: _315  and  _317
REMARK  133  A    between atoms: _317  and  _318
REMARK  134  A    between atoms: _317  and  _320
REMARK  135  A    between atoms: _320  and  _321
REMARK  136  A    between atoms: _323  and  _325
REMARK  137  A    between atoms: _325  and  _326
REMARK  138  A    between atoms: _328  and  _330
REMARK  139  A    between atoms: _330  and  _331
REMARK  140  A    between atoms: _330  and  _333
REMARK  141  A    between atoms: _333  and  _334
REMARK                            x       y       z     vdW  Elec       q    Type
REMARK                         _______ _______ _______ _____ _____    ______ ____
ROOT
ATOM      1  O   HOH     1       3.918  -5.495  -1.154  0.00  0.00    +0.000 OA
ENDROOT
TORSDOF 0
REMARK  Name = ../refined-set-2016/2yln/2yln_pocket.pdb
REMARK  141 active torsions:
REMARK  status: ('A' for Active; 'I' for Inactive)
REMARK    1  A    between atoms: _1  and  _3
REMARK    2  A    between atoms: _3  and  _4
REMARK    3  A    between atoms: _3  and  _6
REMARK    4  A    between atoms: _6  and  _7
REMARK    5  A    between atoms: _7  and  _8
REMARK    6  A    between atoms: _11  and  _13
REMARK    7  A    between atoms: _13  and  _14
REMARK    8  A    between atoms: _13  and  _16
REMARK    9  A    between atoms: _16  and  _17
REMARK   10  A    between atoms: _22  and  _23
REMARK   11  A    between atoms: _25  and  _27
REMARK   12  A    between atoms: _27  and  _28
REMARK   13  A    between atoms: _27  and  _30
REMARK   14  A    between atoms: _30  and  _31
REMARK   15  A    between atoms: _37  and  _39
REMARK   16  A    between atoms: _39  and  _40
REMARK   17  A    between atoms: _39  and  _42
REMARK   18  A    between atoms: _42  and  _43
REMARK   19  A    between atoms: _46  and  _48
REMARK   20  A    between atoms: _48  and  _49
REMARK   21  A    between atoms: _48  and  _51
REMARK   22  A    between atoms: _51  and  _52
REMARK   23  A    between atoms: _55  and  _57
REMARK   24  A    between atoms: _57  and  _58
REMARK   25  A    between atoms: _57  and  _60
REMARK   26  A    between atoms: _60  and  _61
REMARK   27  A    between atoms: _71  and  _73
REMARK   28  A    between atoms: _73  and  _74
REMARK   29  A    between atoms: _73  and  _76
REMARK   30  A    between atoms: _76  and  _77
REMARK   31  A    between atoms: _80  and  _82
REMARK   32  A    between atoms: _82  and  _83
REMARK   33  A    between atoms: _82  and  _85
REMARK   34  A    between atoms: _85  and  _86
REMARK   35  A    between atoms: _86  and  _87
REMARK   36  A    between atoms: _89  and  _91
REMARK   37  A    between atoms: _91  and  _92
REMARK   38  A    between atoms: _91  and  _94
REMARK   39  A    between atoms: _94  and  _95
REMARK   40  A    between atoms: _95  and  _96
REMARK   41  A    between atoms: _98  and  _100
REMARK   42  A    between atoms: _100  and  _101
REMARK   43  A    between atoms: _100  and  _103
REMARK   44  A    between atoms: _106  and  _108
REMARK   45  A    between atoms: _108  and  _109
REMARK   46  A    between atoms: _112  and  _114
REMARK   47  A    between atoms: _114  and  _115
REMARK   48  A    between atoms: _114  and  _117
REMARK   49  A    between atoms: _117  and  _118
REMARK   50  A    between atoms: _123  and  _125
REMARK   51  A    between atoms: _125  and  _126
REMARK   52  A    between atoms: _125  and  _128
REMARK   53  A    between atoms: _128  and  _129
REMARK   54  A    between atoms: _129  and  _130
REMARK   55  A    between atoms: _135  and  _137
REMARK   56  A    between atoms: _137  and  _138
REMARK   57  A    between atoms: _137  and  _140
REMARK   58  A    between atoms: _143  and  _145
REMARK   59  A    between atoms: _145  and  _146
REMARK   60  A    between atoms: _148  and  _150
REMARK   61  A    between atoms: _150  and  _151
REMARK   62  A    between atoms: _150  and  _153
REMARK   63  A    between atoms: _153  and  _154
REMARK   64  A    between atoms: _157  and  _159
REMARK   65  A    between atoms: _159  and  _160
REMARK   66  A    between atoms: _159  and  _162
REMARK   67  A    between atoms: _162  and  _163
REMARK   68  A    between atoms: _166  and  _168
REMARK   69  A    between atoms: _168  and  _169
REMARK   70  A    between atoms: _168  and  _171
REMARK   71  A    between atoms: _171  and  _172
REMARK   72  A    between atoms: _174  and  _176
REMARK   73  A    between atoms: _176  and  _177
REMARK   74  A    between atoms: _176  and  _179
REMARK   75  A    between atoms: _179  and  _180
REMARK   76  A    between atoms: _180  and  _181
REMARK   77  A    between atoms: _181  and  _182
REMARK   78  A    between atoms: _191  and  _193
REMARK   79  A    between atoms: _193  and  _194
REMARK   80  A    between atoms: _193  and  _196
REMARK   81  A    between atoms: _196  and  _197
REMARK   82  A    between atoms: _199  and  _201
REMARK   83  A    between atoms: _201  and  _202
REMARK   84  A    between atoms: _201  and  _204
REMARK   85  A    between atoms: _204  and  _205
REMARK   86  A    between atoms: _208  and  _210
REMARK   87  A    between atoms: _210  and  _211
REMARK   88  A    between atoms: _210  and  _213
REMARK   89  A    between atoms: _213  and  _214
REMARK   90  A    between atoms: _217  and  _219
REMARK   91  A    between atoms: _219  and  _220
REMARK   92  A    between atoms: _219  and  _222
REMARK   93  A    between atoms: _222  and  _223
REMARK   94  A    between atoms: _225  and  _227
REMARK   95  A    between atoms: _227  and  _228
REMARK   96  A    between atoms: _227  and  _230
REMARK   97  A    between atoms: _230  and  _231
REMARK   98  A    between atoms: _236  and  _238
REMARK   99  A    between atoms: _238  and  _239
REMARK  100  A    between atoms: _238  and  _241
REMARK  101  A    between atoms: _241  and  _242
REMARK  102  A    between atoms: _247  and  _248
REMARK  103  A    between atoms: _250  and  _252
REMARK  104  A    between atoms: _252  and  _253
REMARK  105  A    between atoms: _255  and  _257
REMARK  106  A    between atoms: _257  and  _258
REMARK  107  A    between atoms: _257  and  _260
REMARK  108  A    between atoms: _260  and  _261
REMARK  109  A    between atoms: _261  and  _262
REMARK  110  A    between atoms: _265  and  _267
REMARK  111  A    between atoms: _267  and  _268
REMARK  112  A    between atoms: _267  and  _270
REMARK  113  A    between atoms: _270  and  _271
REMARK  114  A    between atoms: _271  and  _272
REMARK  115  A    between atoms: _272  and  _273
REMARK  116  A    between atoms: _273  and  _274
REMARK  117  A    between atoms: _278  and  _280
REMARK  118  A    between atoms: _280  and  _281
REMARK  119  A    between atoms: _280  and  _283
REMARK  120  A    between atoms: _283  and  _284
REMARK  121  A    between atoms: _287  and  _289
REMARK  122  A    between atoms: _289  and  _290
REMARK  123  A    between atoms: _289  and  _292
REMARK  124  A    between atoms: _292  and  _293
REMARK  125  A    between atoms: _298  and  _300
REMARK  126  A    between atoms: _300  and  _301
REMARK  127  A    between atoms: _300  and  _303
REMARK  128  A    between atoms: _303  and  _304
REMARK  129  A    between atoms: _307  and  _309
REMARK  130  A    between atoms: _309  and  _310
REMARK  131  A    between atoms: _309  and  _312
REMARK  132  A    between atoms: _315  and  _317
REMARK  133  A    between atoms: _317  and  _318
REMARK  134  A    between atoms: _317  and  _320
REMARK  135  A    between atoms: _320  and  _321
REMARK  136  A    between atoms: _323  and  _325
REMARK  137  A    between atoms: _325  and  _326
REMARK  138  A    between atoms: _328  and  _330
REMARK  139  A    between atoms: _330  and  _331
REMARK  140  A    between atoms: _330  and  _333
REMARK  141  A    between atoms: _333  and  _334
REMARK                            x       y       z     vdW  Elec       q    Type
REMARK                         _______ _______ _______ _____ _____    ______ ____
ROOT
ATOM      1  O   HOH     1      10.046  -0.010  -2.802  0.00  0.00    +0.000 OA
ENDROOT
TORSDOF 0
REMARK  Name = ../refined-set-2016/2yln/2yln_pocket.pdb
REMARK  141 active torsions:
REMARK  status: ('A' for Active; 'I' for Inactive)
REMARK    1  A    between atoms: _1  and  _3
REMARK    2  A    between atoms: _3  and  _4
REMARK    3  A    between atoms: _3  and  _6
REMARK    4  A    between atoms: _6  and  _7
REMARK    5  A    between atoms: _7  and  _8
REMARK    6  A    between atoms: _11  and  _13
REMARK    7  A    between atoms: _13  and  _14
REMARK    8  A    between atoms: _13  and  _16
REMARK    9  A    between atoms: _16  and  _17
REMARK   10  A    between atoms: _22  and  _23
REMARK   11  A    between atoms: _25  and  _27
REMARK   12  A    between atoms: _27  and  _28
REMARK   13  A    between atoms: _27  and  _30
REMARK   14  A    between atoms: _30  and  _31
REMARK   15  A    between atoms: _37  and  _39
REMARK   16  A    between atoms: _39  and  _40
REMARK   17  A    between atoms: _39  and  _42
REMARK   18  A    between atoms: _42  and  _43
REMARK   19  A    between atoms: _46  and  _48
REMARK   20  A    between atoms: _48  and  _49
REMARK   21  A    between atoms: _48  and  _51
REMARK   22  A    between atoms: _51  and  _52
REMARK   23  A    between atoms: _55  and  _57
REMARK   24  A    between atoms: _57  and  _58
REMARK   25  A    between atoms: _57  and  _60
REMARK   26  A    between atoms: _60  and  _61
REMARK   27  A    between atoms: _71  and  _73
REMARK   28  A    between atoms: _73  and  _74
REMARK   29  A    between atoms: _73  and  _76
REMARK   30  A    between atoms: _76  and  _77
REMARK   31  A    between atoms: _80  and  _82
REMARK   32  A    between atoms: _82  and  _83
REMARK   33  A    between atoms: _82  and  _85
REMARK   34  A    between atoms: _85  and  _86
REMARK   35  A    between atoms: _86  and  _87
REMARK   36  A    between atoms: _89  and  _91
REMARK   37  A    between atoms: _91  and  _92
REMARK   38  A    between atoms: _91  and  _94
REMARK   39  A    between atoms: _94  and  _95
REMARK   40  A    between atoms: _95  and  _96
REMARK   41  A    between atoms: _98  and  _100
REMARK   42  A    between atoms: _100  and  _101
REMARK   43  A    between atoms: _100  and  _103
REMARK   44  A    between atoms: _106  and  _108
REMARK   45  A    between atoms: _108  and  _109
REMARK   46  A    between atoms: _112  and  _114
REMARK   47  A    between atoms: _114  and  _115
REMARK   48  A    between atoms: _114  and  _117
REMARK   49  A    between atoms: _117  and  _118
REMARK   50  A    between atoms: _123  and  _125
REMARK   51  A    between atoms: _125  and  _126
REMARK   52  A    between atoms: _125  and  _128
REMARK   53  A    between atoms: _128  and  _129
REMARK   54  A    between atoms: _129  and  _130
REMARK   55  A    between atoms: _135  and  _137
REMARK   56  A    between atoms: _137  and  _138
REMARK   57  A    between atoms: _137  and  _140
REMARK   58  A    between atoms: _143  and  _145
REMARK   59  A    between atoms: _145  and  _146
REMARK   60  A    between atoms: _148  and  _150
REMARK   61  A    between atoms: _150  and  _151
REMARK   62  A    between atoms: _150  and  _153
REMARK   63  A    between atoms: _153  and  _154
REMARK   64  A    between atoms: _157  and  _159
REMARK   65  A    between atoms: _159  and  _160
REMARK   66  A    between atoms: _159  and  _162
REMARK   67  A    between atoms: _162  and  _163
REMARK   68  A    between atoms: _166  and  _168
REMARK   69  A    between atoms: _168  and  _169
REMARK   70  A    between atoms: _168  and  _171
REMARK   71  A    between atoms: _171  and  _172
REMARK   72  A    between atoms: _174  and  _176
REMARK   73  A    between atoms: _176  and  _177
REMARK   74  A    between atoms: _176  and  _179
REMARK   75  A    between atoms: _179  and  _180
REMARK   76  A    between atoms: _180  and  _181
REMARK   77  A    between atoms: _181  and  _182
REMARK   78  A    between atoms: _191  and  _193
REMARK   79  A    between atoms: _193  and  _194
REMARK   80  A    between atoms: _193  and  _196
REMARK   81  A    between atoms: _196  and  _197
REMARK   82  A    between atoms: _199  and  _201
REMARK   83  A    between atoms: _201  and  _202
REMARK   84  A    between atoms: _201  and  _204
REMARK   85  A    between atoms: _204  and  _205
REMARK   86  A    between atoms: _208  and  _210
REMARK   87  A    between atoms: _210  and  _211
REMARK   88  A    between atoms: _210  and  _213
REMARK   89  A    between atoms: _213  and  _214
REMARK   90  A    between atoms: _217  and  _219
REMARK   91  A    between atoms: _219  and  _220
REMARK   92  A    between atoms: _219  and  _222
REMARK   93  A    between atoms: _222  and  _223
REMARK   94  A    between atoms: _225  and  _227
REMARK   95  A    between atoms: _227  and  _228
REMARK   96  A    between atoms: _227  and  _230
REMARK   97  A    between atoms: _230  and  _231
REMARK   98  A    between atoms: _236  and  _238
REMARK   99  A    between atoms: _238  and  _239
REMARK  100  A    between atoms: _238  and  _241
REMARK  101  A    between atoms: _241  and  _242
REMARK  102  A    between atoms: _247  and  _248
REMARK  103  A    between atoms: _250  and  _252
REMARK  104  A    between atoms: _252  and  _253
REMARK  105  A    between atoms: _255  and  _257
REMARK  106  A    between atoms: _257  and  _258
REMARK  107  A    between atoms: _257  and  _260
REMARK  108  A    between atoms: _260  and  _261
REMARK  109  A    between atoms: _261  and  _262
REMARK  110  A    between atoms: _265  and  _267
REMARK  111  A    between atoms: _267  and  _268
REMARK  112  A    between atoms: _267  and  _270
REMARK  113  A    between atoms: _270  and  _271
REMARK  114  A    between atoms: _271  and  _272
REMARK  115  A    between atoms: _272  and  _273
REMARK  116  A    between atoms: _273  and  _274
REMARK  117  A    between atoms: _278  and  _280
REMARK  118  A    between atoms: _280  and  _281
REMARK  119  A    between atoms: _280  and  _283
REMARK  120  A    between atoms: _283  and  _284
REMARK  121  A    between atoms: _287  and  _289
REMARK  122  A    between atoms: _289  and  _290
REMARK  123  A    between atoms: _289  and  _292
REMARK  124  A    between atoms: _292  and  _293
REMARK  125  A    between atoms: _298  and  _300
REMARK  126  A    between atoms: _300  and  _301
REMARK  127  A    between atoms: _300  and  _303
REMARK  128  A    between atoms: _303  and  _304
REMARK  129  A    between atoms: _307  and  _309
REMARK  130  A    between atoms: _309  and  _310
REMARK  131  A    between atoms: _309  and  _312
REMARK  132  A    between atoms: _315  and  _317
REMARK  133  A    between atoms: _317  and  _318
REMARK  134  A    between atoms: _317  and  _320
REMARK  135  A    between atoms: _320  and  _321
REMARK  136  A    between atoms: _323  and  _325
REMARK  137  A    between atoms: _325  and  _326
REMARK  138  A    between atoms: _328  and  _330
REMARK  139  A    between atoms: _330  and  _331
REMARK  140  A    between atoms: _330  and  _333
REMARK  141  A    between atoms: _333  and  _334
REMARK                            x       y       z     vdW  Elec       q    Type
REMARK                         _______ _______ _______ _____ _____    ______ ____
ROOT
ATOM      1  O   HOH     1       1.461   5.788   2.759  0.00  0.00    +0.000 OA
ENDROOT
TORSDOF 0
REMARK  Name = ../refined-set-2016/2yln/2yln_pocket.pdb
REMARK  141 active torsions:
REMARK  status: ('A' for Active; 'I' for Inactive)
REMARK    1  A    between atoms: _1  and  _3
REMARK    2  A    between atoms: _3  and  _4
REMARK    3  A    between atoms: _3  and  _6
REMARK    4  A    between atoms: _6  and  _7
REMARK    5  A    between atoms: _7  and  _8
REMARK    6  A    between atoms: _11  and  _13
REMARK    7  A    between atoms: _13  and  _14
REMARK    8  A    between atoms: _13  and  _16
REMARK    9  A    between atoms: _16  and  _17
REMARK   10  A    between atoms: _22  and  _23
REMARK   11  A    between atoms: _25  and  _27
REMARK   12  A    between atoms: _27  and  _28
REMARK   13  A    between atoms: _27  and  _30
REMARK   14  A    between atoms: _30  and  _31
REMARK   15  A    between atoms: _37  and  _39
REMARK   16  A    between atoms: _39  and  _40
REMARK   17  A    between atoms: _39  and  _42
REMARK   18  A    between atoms: _42  and  _43
REMARK   19  A    between atoms: _46  and  _48
REMARK   20  A    between atoms: _48  and  _49
REMARK   21  A    between atoms: _48  and  _51
REMARK   22  A    between atoms: _51  and  _52
REMARK   23  A    between atoms: _55  and  _57
REMARK   24  A    between atoms: _57  and  _58
REMARK   25  A    between atoms: _57  and  _60
REMARK   26  A    between atoms: _60  and  _61
REMARK   27  A    between atoms: _71  and  _73
REMARK   28  A    between atoms: _73  and  _74
REMARK   29  A    between atoms: _73  and  _76
REMARK   30  A    between atoms: _76  and  _77
REMARK   31  A    between atoms: _80  and  _82
REMARK   32  A    between atoms: _82  and  _83
REMARK   33  A    between atoms: _82  and  _85
REMARK   34  A    between atoms: _85  and  _86
REMARK   35  A    between atoms: _86  and  _87
REMARK   36  A    between atoms: _89  and  _91
REMARK   37  A    between atoms: _91  and  _92
REMARK   38  A    between atoms: _91  and  _94
REMARK   39  A    between atoms: _94  and  _95
REMARK   40  A    between atoms: _95  and  _96
REMARK   41  A    between atoms: _98  and  _100
REMARK   42  A    between atoms: _100  and  _101
REMARK   43  A    between atoms: _100  and  _103
REMARK   44  A    between atoms: _106  and  _108
REMARK   45  A    between atoms: _108  and  _109
REMARK   46  A    between atoms: _112  and  _114
REMARK   47  A    between atoms: _114  and  _115
REMARK   48  A    between atoms: _114  and  _117
REMARK   49  A    between atoms: _117  and  _118
REMARK   50  A    between atoms: _123  and  _125
REMARK   51  A    between atoms: _125  and  _126
REMARK   52  A    between atoms: _125  and  _128
REMARK   53  A    between atoms: _128  and  _129
REMARK   54  A    between atoms: _129  and  _130
REMARK   55  A    between atoms: _135  and  _137
REMARK   56  A    between atoms: _137  and  _138
REMARK   57  A    between atoms: _137  and  _140
REMARK   58  A    between atoms: _143  and  _145
REMARK   59  A    between atoms: _145  and  _146
REMARK   60  A    between atoms: _148  and  _150
REMARK   61  A    between atoms: _150  and  _151
REMARK   62  A    between atoms: _150  and  _153
REMARK   63  A    between atoms: _153  and  _154
REMARK   64  A    between atoms: _157  and  _159
REMARK   65  A    between atoms: _159  and  _160
REMARK   66  A    between atoms: _159  and  _162
REMARK   67  A    between atoms: _162  and  _163
REMARK   68  A    between atoms: _166  and  _168
REMARK   69  A    between atoms: _168  and  _169
REMARK   70  A    between atoms: _168  and  _171
REMARK   71  A    between atoms: _171  and  _172
REMARK   72  A    between atoms: _174  and  _176
REMARK   73  A    between atoms: _176  and  _177
REMARK   74  A    between atoms: _176  and  _179
REMARK   75  A    between atoms: _179  and  _180
REMARK   76  A    between atoms: _180  and  _181
REMARK   77  A    between atoms: _181  and  _182
REMARK   78  A    between atoms: _191  and  _193
REMARK   79  A    between atoms: _193  and  _194
REMARK   80  A    between atoms: _193  and  _196
REMARK   81  A    between atoms: _196  and  _197
REMARK   82  A    between atoms: _199  and  _201
REMARK   83  A    between atoms: _201  and  _202
REMARK   84  A    between atoms: _201  and  _204
REMARK   85  A    between atoms: _204  and  _205
REMARK   86  A    between atoms: _208  and  _210
REMARK   87  A    between atoms: _210  and  _211
REMARK   88  A    between atoms: _210  and  _213
REMARK   89  A    between atoms: _213  and  _214
REMARK   90  A    between atoms: _217  and  _219
REMARK   91  A    between atoms: _219  and  _220
REMARK   92  A    between atoms: _219  and  _222
REMARK   93  A    between atoms: _222  and  _223
REMARK   94  A    between atoms: _225  and  _227
REMARK   95  A    between atoms: _227  and  _228
REMARK   96  A    between atoms: _227  and  _230
REMARK   97  A    between atoms: _230  and  _231
REMARK   98  A    between atoms: _236  and  _238
REMARK   99  A    between atoms: _238  and  _239
REMARK  100  A    between atoms: _238  and  _241
REMARK  101  A    between atoms: _241  and  _242
REMARK  102  A    between atoms: _247  and  _248
REMARK  103  A    between atoms: _250  and  _252
REMARK  104  A    between atoms: _252  and  _253
REMARK  105  A    between atoms: _255  and  _257
REMARK  106  A    between atoms: _257  and  _258
REMARK  107  A    between atoms: _257  and  _260
REMARK  108  A    between atoms: _260  and  _261
REMARK  109  A    between atoms: _261  and  _262
REMARK  110  A    between atoms: _265  and  _267
REMARK  111  A    between atoms: _267  and  _268
REMARK  112  A    between atoms: _267  and  _270
REMARK  113  A    between atoms: _270  and  _271
REMARK  114  A    between atoms: _271  and  _272
REMARK  115  A    between atoms: _272  and  _273
REMARK  116  A    between atoms: _273  and  _274
REMARK  117  A    between atoms: _278  and  _280
REMARK  118  A    between atoms: _280  and  _281
REMARK  119  A    between atoms: _280  and  _283
REMARK  120  A    between atoms: _283  and  _284
REMARK  121  A    between atoms: _287  and  _289
REMARK  122  A    between atoms: _289  and  _290
REMARK  123  A    between atoms: _289  and  _292
REMARK  124  A    between atoms: _292  and  _293
REMARK  125  A    between atoms: _298  and  _300
REMARK  126  A    between atoms: _300  and  _301
REMARK  127  A    between atoms: _300  and  _303
REMARK  128  A    between atoms: _303  and  _304
REMARK  129  A    between atoms: _307  and  _309
REMARK  130  A    between atoms: _309  and  _310
REMARK  131  A    between atoms: _309  and  _312
REMARK  132  A    between atoms: _315  and  _317
REMARK  133  A    between atoms: _317  and  _318
REMARK  134  A    between atoms: _317  and  _320
REMARK  135  A    between atoms: _320  and  _321
REMARK  136  A    between atoms: _323  and  _325
REMARK  137  A    between atoms: _325  and  _326
REMARK  138  A    between atoms: _328  and  _330
REMARK  139  A    between atoms: _330  and  _331
REMARK  140  A    between atoms: _330  and  _333
REMARK  141  A    between atoms: _333  and  _334
REMARK                            x       y       z     vdW  Elec       q    Type
REMARK                         _______ _______ _______ _____ _____    ______ ____
ROOT
ATOM      1  O   HOH     1      12.345   3.186   4.770  0.00  0.00    +0.000 OA
ENDROOT
TORSDOF 0
REMARK  Name = ../refined-set-2016/2yln/2yln_pocket.pdb
REMARK  141 active torsions:
REMARK  status: ('A' for Active; 'I' for Inactive)
REMARK    1  A    between atoms: _1  and  _3
REMARK    2  A    between atoms: _3  and  _4
REMARK    3  A    between atoms: _3  and  _6
REMARK    4  A    between atoms: _6  and  _7
REMARK    5  A    between atoms: _7  and  _8
REMARK    6  A    between atoms: _11  and  _13
REMARK    7  A    between atoms: _13  and  _14
REMARK    8  A    between atoms: _13  and  _16
REMARK    9  A    between atoms: _16  and  _17
REMARK   10  A    between atoms: _22  and  _23
REMARK   11  A    between atoms: _25  and  _27
REMARK   12  A    between atoms: _27  and  _28
REMARK   13  A    between atoms: _27  and  _30
REMARK   14  A    between atoms: _30  and  _31
REMARK   15  A    between atoms: _37  and  _39
REMARK   16  A    between atoms: _39  and  _40
REMARK   17  A    between atoms: _39  and  _42
REMARK   18  A    between atoms: _42  and  _43
REMARK   19  A    between atoms: _46  and  _48
REMARK   20  A    between atoms: _48  and  _49
REMARK   21  A    between atoms: _48  and  _51
REMARK   22  A    between atoms: _51  and  _52
REMARK   23  A    between atoms: _55  and  _57
REMARK   24  A    between atoms: _57  and  _58
REMARK   25  A    between atoms: _57  and  _60
REMARK   26  A    between atoms: _60  and  _61
REMARK   27  A    between atoms: _71  and  _73
REMARK   28  A    between atoms: _73  and  _74
REMARK   29  A    between atoms: _73  and  _76
REMARK   30  A    between atoms: _76  and  _77
REMARK   31  A    between atoms: _80  and  _82
REMARK   32  A    between atoms: _82  and  _83
REMARK   33  A    between atoms: _82  and  _85
REMARK   34  A    between atoms: _85  and  _86
REMARK   35  A    between atoms: _86  and  _87
REMARK   36  A    between atoms: _89  and  _91
REMARK   37  A    between atoms: _91  and  _92
REMARK   38  A    between atoms: _91  and  _94
REMARK   39  A    between atoms: _94  and  _95
REMARK   40  A    between atoms: _95  and  _96
REMARK   41  A    between atoms: _98  and  _100
REMARK   42  A    between atoms: _100  and  _101
REMARK   43  A    between atoms: _100  and  _103
REMARK   44  A    between atoms: _106  and  _108
REMARK   45  A    between atoms: _108  and  _109
REMARK   46  A    between atoms: _112  and  _114
REMARK   47  A    between atoms: _114  and  _115
REMARK   48  A    between atoms: _114  and  _117
REMARK   49  A    between atoms: _117  and  _118
REMARK   50  A    between atoms: _123  and  _125
REMARK   51  A    between atoms: _125  and  _126
REMARK   52  A    between atoms: _125  and  _128
REMARK   53  A    between atoms: _128  and  _129
REMARK   54  A    between atoms: _129  and  _130
REMARK   55  A    between atoms: _135  and  _137
REMARK   56  A    between atoms: _137  and  _138
REMARK   57  A    between atoms: _137  and  _140
REMARK   58  A    between atoms: _143  and  _145
REMARK   59  A    between atoms: _145  and  _146
REMARK   60  A    between atoms: _148  and  _150
REMARK   61  A    between atoms: _150  and  _151
REMARK   62  A    between atoms: _150  and  _153
REMARK   63  A    between atoms: _153  and  _154
REMARK   64  A    between atoms: _157  and  _159
REMARK   65  A    between atoms: _159  and  _160
REMARK   66  A    between atoms: _159  and  _162
REMARK   67  A    between atoms: _162  and  _163
REMARK   68  A    between atoms: _166  and  _168
REMARK   69  A    between atoms: _168  and  _169
REMARK   70  A    between atoms: _168  and  _171
REMARK   71  A    between atoms: _171  and  _172
REMARK   72  A    between atoms: _174  and  _176
REMARK   73  A    between atoms: _176  and  _177
REMARK   74  A    between atoms: _176  and  _179
REMARK   75  A    between atoms: _179  and  _180
REMARK   76  A    between atoms: _180  and  _181
REMARK   77  A    between atoms: _181  and  _182
REMARK   78  A    between atoms: _191  and  _193
REMARK   79  A    between atoms: _193  and  _194
REMARK   80  A    between atoms: _193  and  _196
REMARK   81  A    between atoms: _196  and  _197
REMARK   82  A    between atoms: _199  and  _201
REMARK   83  A    between atoms: _201  and  _202
REMARK   84  A    between atoms: _201  and  _204
REMARK   85  A    between atoms: _204  and  _205
REMARK   86  A    between atoms: _208  and  _210
REMARK   87  A    between atoms: _210  and  _211
REMARK   88  A    between atoms: _210  and  _213
REMARK   89  A    between atoms: _213  and  _214
REMARK   90  A    between atoms: _217  and  _219
REMARK   91  A    between atoms: _219  and  _220
REMARK   92  A    between atoms: _219  and  _222
REMARK   93  A    between atoms: _222  and  _223
REMARK   94  A    between atoms: _225  and  _227
REMARK   95  A    between atoms: _227  and  _228
REMARK   96  A    between atoms: _227  and  _230
REMARK   97  A    between atoms: _230  and  _231
REMARK   98  A    between atoms: _236  and  _238
REMARK   99  A    between atoms: _238  and  _239
REMARK  100  A    between atoms: _238  and  _241
REMARK  101  A    between atoms: _241  and  _242
REMARK  102  A    between atoms: _247  and  _248
REMARK  103  A    between atoms: _250  and  _252
REMARK  104  A    between atoms: _252  and  _253
REMARK  105  A    between atoms: _255  and  _257
REMARK  106  A    between atoms: _257  and  _258
REMARK  107  A    between atoms: _257  and  _260
REMARK  108  A    between atoms: _260  and  _261
REMARK  109  A    between atoms: _261  and  _262
REMARK  110  A    between atoms: _265  and  _267
REMARK  111  A    between atoms: _267  and  _268
REMARK  112  A    between atoms: _267  and  _270
REMARK  113  A    between atoms: _270  and  _271
REMARK  114  A    between atoms: _271  and  _272
REMARK  115  A    between atoms: _272  and  _273
REMARK  116  A    between atoms: _273  and  _274
REMARK  117  A    between atoms: _278  and  _280
REMARK  118  A    between atoms: _280  and  _281
REMARK  119  A    between atoms: _280  and  _283
REMARK  120  A    between atoms: _283  and  _284
REMARK  121  A    between atoms: _287  and  _289
REMARK  122  A    between atoms: _289  and  _290
REMARK  123  A    between atoms: _289  and  _292
REMARK  124  A    between atoms: _292  and  _293
REMARK  125  A    between atoms: _298  and  _300
REMARK  126  A    between atoms: _300  and  _301
REMARK  127  A    between atoms: _300  and  _303
REMARK  128  A    between atoms: _303  and  _304
REMARK  129  A    between atoms: _307  and  _309
REMARK  130  A    between atoms: _309  and  _310
REMARK  131  A    between atoms: _309  and  _312
REMARK  132  A    between atoms: _315  and  _317
REMARK  133  A    between atoms: _317  and  _318
REMARK  134  A    between atoms: _317  and  _320
REMARK  135  A    between atoms: _320  and  _321
REMARK  136  A    between atoms: _323  and  _325
REMARK  137  A    between atoms: _325  and  _326
REMARK  138  A    between atoms: _328  and  _330
REMARK  139  A    between atoms: _330  and  _331
REMARK  140  A    between atoms: _330  and  _333
REMARK  141  A    between atoms: _333  and  _334
REMARK                            x       y       z     vdW  Elec       q    Type
REMARK                         _______ _______ _______ _____ _____    ______ ____
ROOT
ATOM      1  O   HOH     1      12.838   2.705  -2.392  0.00  0.00    +0.000 OA
ENDROOT
TORSDOF 0
REMARK  Name = ../refined-set-2016/2yln/2yln_pocket.pdb
REMARK  141 active torsions:
REMARK  status: ('A' for Active; 'I' for Inactive)
REMARK    1  A    between atoms: _1  and  _3
REMARK    2  A    between atoms: _3  and  _4
REMARK    3  A    between atoms: _3  and  _6
REMARK    4  A    between atoms: _6  and  _7
REMARK    5  A    between atoms: _7  and  _8
REMARK    6  A    between atoms: _11  and  _13
REMARK    7  A    between atoms: _13  and  _14
REMARK    8  A    between atoms: _13  and  _16
REMARK    9  A    between atoms: _16  and  _17
REMARK   10  A    between atoms: _22  and  _23
REMARK   11  A    between atoms: _25  and  _27
REMARK   12  A    between atoms: _27  and  _28
REMARK   13  A    between atoms: _27  and  _30
REMARK   14  A    between atoms: _30  and  _31
REMARK   15  A    between atoms: _37  and  _39
REMARK   16  A    between atoms: _39  and  _40
REMARK   17  A    between atoms: _39  and  _42
REMARK   18  A    between atoms: _42  and  _43
REMARK   19  A    between atoms: _46  and  _48
REMARK   20  A    between atoms: _48  and  _49
REMARK   21  A    between atoms: _48  and  _51
REMARK   22  A    between atoms: _51  and  _52
REMARK   23  A    between atoms: _55  and  _57
REMARK   24  A    between atoms: _57  and  _58
REMARK   25  A    between atoms: _57  and  _60
REMARK   26  A    between atoms: _60  and  _61
REMARK   27  A    between atoms: _71  and  _73
REMARK   28  A    between atoms: _73  and  _74
REMARK   29  A    between atoms: _73  and  _76
REMARK   30  A    between atoms: _76  and  _77
REMARK   31  A    between atoms: _80  and  _82
REMARK   32  A    between atoms: _82  and  _83
REMARK   33  A    between atoms: _82  and  _85
REMARK   34  A    between atoms: _85  and  _86
REMARK   35  A    between atoms: _86  and  _87
REMARK   36  A    between atoms: _89  and  _91
REMARK   37  A    between atoms: _91  and  _92
REMARK   38  A    between atoms: _91  and  _94
REMARK   39  A    between atoms: _94  and  _95
REMARK   40  A    between atoms: _95  and  _96
REMARK   41  A    between atoms: _98  and  _100
REMARK   42  A    between atoms: _100  and  _101
REMARK   43  A    between atoms: _100  and  _103
REMARK   44  A    between atoms: _106  and  _108
REMARK   45  A    between atoms: _108  and  _109
REMARK   46  A    between atoms: _112  and  _114
REMARK   47  A    between atoms: _114  and  _115
REMARK   48  A    between atoms: _114  and  _117
REMARK   49  A    between atoms: _117  and  _118
REMARK   50  A    between atoms: _123  and  _125
REMARK   51  A    between atoms: _125  and  _126
REMARK   52  A    between atoms: _125  and  _128
REMARK   53  A    between atoms: _128  and  _129
REMARK   54  A    between atoms: _129  and  _130
REMARK   55  A    between atoms: _135  and  _137
REMARK   56  A    between atoms: _137  and  _138
REMARK   57  A    between atoms: _137  and  _140
REMARK   58  A    between atoms: _143  and  _145
REMARK   59  A    between atoms: _145  and  _146
REMARK   60  A    between atoms: _148  and  _150
REMARK   61  A    between atoms: _150  and  _151
REMARK   62  A    between atoms: _150  and  _153
REMARK   63  A    between atoms: _153  and  _154
REMARK   64  A    between atoms: _157  and  _159
REMARK   65  A    between atoms: _159  and  _160
REMARK   66  A    between atoms: _159  and  _162
REMARK   67  A    between atoms: _162  and  _163
REMARK   68  A    between atoms: _166  and  _168
REMARK   69  A    between atoms: _168  and  _169
REMARK   70  A    between atoms: _168  and  _171
REMARK   71  A    between atoms: _171  and  _172
REMARK   72  A    between atoms: _174  and  _176
REMARK   73  A    between atoms: _176  and  _177
REMARK   74  A    between atoms: _176  and  _179
REMARK   75  A    between atoms: _179  and  _180
REMARK   76  A    between atoms: _180  and  _181
REMARK   77  A    between atoms: _181  and  _182
REMARK   78  A    between atoms: _191  and  _193
REMARK   79  A    between atoms: _193  and  _194
REMARK   80  A    between atoms: _193  and  _196
REMARK   81  A    between atoms: _196  and  _197
REMARK   82  A    between atoms: _199  and  _201
REMARK   83  A    between atoms: _201  and  _202
REMARK   84  A    between atoms: _201  and  _204
REMARK   85  A    between atoms: _204  and  _205
REMARK   86  A    between atoms: _208  and  _210
REMARK   87  A    between atoms: _210  and  _211
REMARK   88  A    between atoms: _210  and  _213
REMARK   89  A    between atoms: _213  and  _214
REMARK   90  A    between atoms: _217  and  _219
REMARK   91  A    between atoms: _219  and  _220
REMARK   92  A    between atoms: _219  and  _222
REMARK   93  A    between atoms: _222  and  _223
REMARK   94  A    between atoms: _225  and  _227
REMARK   95  A    between atoms: _227  and  _228
REMARK   96  A    between atoms: _227  and  _230
REMARK   97  A    between atoms: _230  and  _231
REMARK   98  A    between atoms: _236  and  _238
REMARK   99  A    between atoms: _238  and  _239
REMARK  100  A    between atoms: _238  and  _241
REMARK  101  A    between atoms: _241  and  _242
REMARK  102  A    between atoms: _247  and  _248
REMARK  103  A    between atoms: _250  and  _252
REMARK  104  A    between atoms: _252  and  _253
REMARK  105  A    between atoms: _255  and  _257
REMARK  106  A    between atoms: _257  and  _258
REMARK  107  A    between atoms: _257  and  _260
REMARK  108  A    between atoms: _260  and  _261
REMARK  109  A    between atoms: _261  and  _262
REMARK  110  A    between atoms: _265  and  _267
REMARK  111  A    between atoms: _267  and  _268
REMARK  112  A    between atoms: _267  and  _270
REMARK  113  A    between atoms: _270  and  _271
REMARK  114  A    between atoms: _271  and  _272
REMARK  115  A    between atoms: _272  and  _273
REMARK  116  A    between atoms: _273  and  _274
REMARK  117  A    between atoms: _278  and  _280
REMARK  118  A    between atoms: _280  and  _281
REMARK  119  A    between atoms: _280  and  _283
REMARK  120  A    between atoms: _283  and  _284
REMARK  121  A    between atoms: _287  and  _289
REMARK  122  A    between atoms: _289  and  _290
REMARK  123  A    between atoms: _289  and  _292
REMARK  124  A    between atoms: _292  and  _293
REMARK  125  A    between atoms: _298  and  _300
REMARK  126  A    between atoms: _300  and  _301
REMARK  127  A    between atoms: _300  and  _303
REMARK  128  A    between atoms: _303  and  _304
REMARK  129  A    between atoms: _307  and  _309
REMARK  130  A    between atoms: _309  and  _310
REMARK  131  A    between atoms: _309  and  _312
REMARK  132  A    between atoms: _315  and  _317
REMARK  133  A    between atoms: _317  and  _318
REMARK  134  A    between atoms: _317  and  _320
REMARK  135  A    between atoms: _320  and  _321
REMARK  136  A    between atoms: _323  and  _325
REMARK  137  A    between atoms: _325  and  _326
REMARK  138  A    between atoms: _328  and  _330
REMARK  139  A    between atoms: _330  and  _331
REMARK  140  A    between atoms: _330  and  _333
REMARK  141  A    between atoms: _333  and  _334
REMARK                            x       y       z     vdW  Elec       q    Type
REMARK                         _______ _______ _______ _____ _____    ______ ____
ROOT
ATOM      1  O   HOH     1      12.748  -0.072  -2.806  0.00  0.00    +0.000 OA
ENDROOT
TORSDOF 0
REMARK  Name = ../refined-set-2016/2yln/2yln_pocket.pdb
REMARK  141 active torsions:
REMARK  status: ('A' for Active; 'I' for Inactive)
REMARK    1  A    between atoms: _1  and  _3
REMARK    2  A    between atoms: _3  and  _4
REMARK    3  A    between atoms: _3  and  _6
REMARK    4  A    between atoms: _6  and  _7
REMARK    5  A    between atoms: _7  and  _8
REMARK    6  A    between atoms: _11  and  _13
REMARK    7  A    between atoms: _13  and  _14
REMARK    8  A    between atoms: _13  and  _16
REMARK    9  A    between atoms: _16  and  _17
REMARK   10  A    between atoms: _22  and  _23
REMARK   11  A    between atoms: _25  and  _27
REMARK   12  A    between atoms: _27  and  _28
REMARK   13  A    between atoms: _27  and  _30
REMARK   14  A    between atoms: _30  and  _31
REMARK   15  A    between atoms: _37  and  _39
REMARK   16  A    between atoms: _39  and  _40
REMARK   17  A    between atoms: _39  and  _42
REMARK   18  A    between atoms: _42  and  _43
REMARK   19  A    between atoms: _46  and  _48
REMARK   20  A    between atoms: _48  and  _49
REMARK   21  A    between atoms: _48  and  _51
REMARK   22  A    between atoms: _51  and  _52
REMARK   23  A    between atoms: _55  and  _57
REMARK   24  A    between atoms: _57  and  _58
REMARK   25  A    between atoms: _57  and  _60
REMARK   26  A    between atoms: _60  and  _61
REMARK   27  A    between atoms: _71  and  _73
REMARK   28  A    between atoms: _73  and  _74
REMARK   29  A    between atoms: _73  and  _76
REMARK   30  A    between atoms: _76  and  _77
REMARK   31  A    between atoms: _80  and  _82
REMARK   32  A    between atoms: _82  and  _83
REMARK   33  A    between atoms: _82  and  _85
REMARK   34  A    between atoms: _85  and  _86
REMARK   35  A    between atoms: _86  and  _87
REMARK   36  A    between atoms: _89  and  _91
REMARK   37  A    between atoms: _91  and  _92
REMARK   38  A    between atoms: _91  and  _94
REMARK   39  A    between atoms: _94  and  _95
REMARK   40  A    between atoms: _95  and  _96
REMARK   41  A    between atoms: _98  and  _100
REMARK   42  A    between atoms: _100  and  _101
REMARK   43  A    between atoms: _100  and  _103
REMARK   44  A    between atoms: _106  and  _108
REMARK   45  A    between atoms: _108  and  _109
REMARK   46  A    between atoms: _112  and  _114
REMARK   47  A    between atoms: _114  and  _115
REMARK   48  A    between atoms: _114  and  _117
REMARK   49  A    between atoms: _117  and  _118
REMARK   50  A    between atoms: _123  and  _125
REMARK   51  A    between atoms: _125  and  _126
REMARK   52  A    between atoms: _125  and  _128
REMARK   53  A    between atoms: _128  and  _129
REMARK   54  A    between atoms: _129  and  _130
REMARK   55  A    between atoms: _135  and  _137
REMARK   56  A    between atoms: _137  and  _138
REMARK   57  A    between atoms: _137  and  _140
REMARK   58  A    between atoms: _143  and  _145
REMARK   59  A    between atoms: _145  and  _146
REMARK   60  A    between atoms: _148  and  _150
REMARK   61  A    between atoms: _150  and  _151
REMARK   62  A    between atoms: _150  and  _153
REMARK   63  A    between atoms: _153  and  _154
REMARK   64  A    between atoms: _157  and  _159
REMARK   65  A    between atoms: _159  and  _160
REMARK   66  A    between atoms: _159  and  _162
REMARK   67  A    between atoms: _162  and  _163
REMARK   68  A    between atoms: _166  and  _168
REMARK   69  A    between atoms: _168  and  _169
REMARK   70  A    between atoms: _168  and  _171
REMARK   71  A    between atoms: _171  and  _172
REMARK   72  A    between atoms: _174  and  _176
REMARK   73  A    between atoms: _176  and  _177
REMARK   74  A    between atoms: _176  and  _179
REMARK   75  A    between atoms: _179  and  _180
REMARK   76  A    between atoms: _180  and  _181
REMARK   77  A    between atoms: _181  and  _182
REMARK   78  A    between atoms: _191  and  _193
REMARK   79  A    between atoms: _193  and  _194
REMARK   80  A    between atoms: _193  and  _196
REMARK   81  A    between atoms: _196  and  _197
REMARK   82  A    between atoms: _199  and  _201
REMARK   83  A    between atoms: _201  and  _202
REMARK   84  A    between atoms: _201  and  _204
REMARK   85  A    between atoms: _204  and  _205
REMARK   86  A    between atoms: _208  and  _210
REMARK   87  A    between atoms: _210  and  _211
REMARK   88  A    between atoms: _210  and  _213
REMARK   89  A    between atoms: _213  and  _214
REMARK   90  A    between atoms: _217  and  _219
REMARK   91  A    between atoms: _219  and  _220
REMARK   92  A    between atoms: _219  and  _222
REMARK   93  A    between atoms: _222  and  _223
REMARK   94  A    between atoms: _225  and  _227
REMARK   95  A    between atoms: _227  and  _228
REMARK   96  A    between atoms: _227  and  _230
REMARK   97  A    between atoms: _230  and  _231
REMARK   98  A    between atoms: _236  and  _238
REMARK   99  A    between atoms: _238  and  _239
REMARK  100  A    between atoms: _238  and  _241
REMARK  101  A    between atoms: _241  and  _242
REMARK  102  A    between atoms: _247  and  _248
REMARK  103  A    between atoms: _250  and  _252
REMARK  104  A    between atoms: _252  and  _253
REMARK  105  A    between atoms: _255  and  _257
REMARK  106  A    between atoms: _257  and  _258
REMARK  107  A    between atoms: _257  and  _260
REMARK  108  A    between atoms: _260  and  _261
REMARK  109  A    between atoms: _261  and  _262
REMARK  110  A    between atoms: _265  and  _267
REMARK  111  A    between atoms: _267  and  _268
REMARK  112  A    between atoms: _267  and  _270
REMARK  113  A    between atoms: _270  and  _271
REMARK  114  A    between atoms: _271  and  _272
REMARK  115  A    between atoms: _272  and  _273
REMARK  116  A    between atoms: _273  and  _274
REMARK  117  A    between atoms: _278  and  _280
REMARK  118  A    between atoms: _280  and  _281
REMARK  119  A    between atoms: _280  and  _283
REMARK  120  A    between atoms: _283  and  _284
REMARK  121  A    between atoms: _287  and  _289
REMARK  122  A    between atoms: _289  and  _290
REMARK  123  A    between atoms: _289  and  _292
REMARK  124  A    between atoms: _292  and  _293
REMARK  125  A    between atoms: _298  and  _300
REMARK  126  A    between atoms: _300  and  _301
REMARK  127  A    between atoms: _300  and  _303
REMARK  128  A    between atoms: _303  and  _304
REMARK  129  A    between atoms: _307  and  _309
REMARK  130  A    between atoms: _309  and  _310
REMARK  131  A    between atoms: _309  and  _312
REMARK  132  A    between atoms: _315  and  _317
REMARK  133  A    between atoms: _317  and  _318
REMARK  134  A    between atoms: _317  and  _320
REMARK  135  A    between atoms: _320  and  _321
REMARK  136  A    between atoms: _323  and  _325
REMARK  137  A    between atoms: _325  and  _326
REMARK  138  A    between atoms: _328  and  _330
REMARK  139  A    between atoms: _330  and  _331
REMARK  140  A    between atoms: _330  and  _333
REMARK  141  A    between atoms: _333  and  _334
REMARK                            x       y       z     vdW  Elec       q    Type
REMARK                         _______ _______ _______ _____ _____    ______ ____
ROOT
ATOM      1  O   HOH     1      10.308   6.392  -2.183  0.00  0.00    +0.000 OA
ENDROOT
TORSDOF 0
REMARK  Name = ../refined-set-2016/2yln/2yln_pocket.pdb
REMARK  141 active torsions:
REMARK  status: ('A' for Active; 'I' for Inactive)
REMARK    1  A    between atoms: _1  and  _3
REMARK    2  A    between atoms: _3  and  _4
REMARK    3  A    between atoms: _3  and  _6
REMARK    4  A    between atoms: _6  and  _7
REMARK    5  A    between atoms: _7  and  _8
REMARK    6  A    between atoms: _11  and  _13
REMARK    7  A    between atoms: _13  and  _14
REMARK    8  A    between atoms: _13  and  _16
REMARK    9  A    between atoms: _16  and  _17
REMARK   10  A    between atoms: _22  and  _23
REMARK   11  A    between atoms: _25  and  _27
REMARK   12  A    between atoms: _27  and  _28
REMARK   13  A    between atoms: _27  and  _30
REMARK   14  A    between atoms: _30  and  _31
REMARK   15  A    between atoms: _37  and  _39
REMARK   16  A    between atoms: _39  and  _40
REMARK   17  A    between atoms: _39  and  _42
REMARK   18  A    between atoms: _42  and  _43
REMARK   19  A    between atoms: _46  and  _48
REMARK   20  A    between atoms: _48  and  _49
REMARK   21  A    between atoms: _48  and  _51
REMARK   22  A    between atoms: _51  and  _52
REMARK   23  A    between atoms: _55  and  _57
REMARK   24  A    between atoms: _57  and  _58
REMARK   25  A    between atoms: _57  and  _60
REMARK   26  A    between atoms: _60  and  _61
REMARK   27  A    between atoms: _71  and  _73
REMARK   28  A    between atoms: _73  and  _74
REMARK   29  A    between atoms: _73  and  _76
REMARK   30  A    between atoms: _76  and  _77
REMARK   31  A    between atoms: _80  and  _82
REMARK   32  A    between atoms: _82  and  _83
REMARK   33  A    between atoms: _82  and  _85
REMARK   34  A    between atoms: _85  and  _86
REMARK   35  A    between atoms: _86  and  _87
REMARK   36  A    between atoms: _89  and  _91
REMARK   37  A    between atoms: _91  and  _92
REMARK   38  A    between atoms: _91  and  _94
REMARK   39  A    between atoms: _94  and  _95
REMARK   40  A    between atoms: _95  and  _96
REMARK   41  A    between atoms: _98  and  _100
REMARK   42  A    between atoms: _100  and  _101
REMARK   43  A    between atoms: _100  and  _103
REMARK   44  A    between atoms: _106  and  _108
REMARK   45  A    between atoms: _108  and  _109
REMARK   46  A    between atoms: _112  and  _114
REMARK   47  A    between atoms: _114  and  _115
REMARK   48  A    between atoms: _114  and  _117
REMARK   49  A    between atoms: _117  and  _118
REMARK   50  A    between atoms: _123  and  _125
REMARK   51  A    between atoms: _125  and  _126
REMARK   52  A    between atoms: _125  and  _128
REMARK   53  A    between atoms: _128  and  _129
REMARK   54  A    between atoms: _129  and  _130
REMARK   55  A    between atoms: _135  and  _137
REMARK   56  A    between atoms: _137  and  _138
REMARK   57  A    between atoms: _137  and  _140
REMARK   58  A    between atoms: _143  and  _145
REMARK   59  A    between atoms: _145  and  _146
REMARK   60  A    between atoms: _148  and  _150
REMARK   61  A    between atoms: _150  and  _151
REMARK   62  A    between atoms: _150  and  _153
REMARK   63  A    between atoms: _153  and  _154
REMARK   64  A    between atoms: _157  and  _159
REMARK   65  A    between atoms: _159  and  _160
REMARK   66  A    between atoms: _159  and  _162
REMARK   67  A    between atoms: _162  and  _163
REMARK   68  A    between atoms: _166  and  _168
REMARK   69  A    between atoms: _168  and  _169
REMARK   70  A    between atoms: _168  and  _171
REMARK   71  A    between atoms: _171  and  _172
REMARK   72  A    between atoms: _174  and  _176
REMARK   73  A    between atoms: _176  and  _177
REMARK   74  A    between atoms: _176  and  _179
REMARK   75  A    between atoms: _179  and  _180
REMARK   76  A    between atoms: _180  and  _181
REMARK   77  A    between atoms: _181  and  _182
REMARK   78  A    between atoms: _191  and  _193
REMARK   79  A    between atoms: _193  and  _194
REMARK   80  A    between atoms: _193  and  _196
REMARK   81  A    between atoms: _196  and  _197
REMARK   82  A    between atoms: _199  and  _201
REMARK   83  A    between atoms: _201  and  _202
REMARK   84  A    between atoms: _201  and  _204
REMARK   85  A    between atoms: _204  and  _205
REMARK   86  A    between atoms: _208  and  _210
REMARK   87  A    between atoms: _210  and  _211
REMARK   88  A    between atoms: _210  and  _213
REMARK   89  A    between atoms: _213  and  _214
REMARK   90  A    between atoms: _217  and  _219
REMARK   91  A    between atoms: _219  and  _220
REMARK   92  A    between atoms: _219  and  _222
REMARK   93  A    between atoms: _222  and  _223
REMARK   94  A    between atoms: _225  and  _227
REMARK   95  A    between atoms: _227  and  _228
REMARK   96  A    between atoms: _227  and  _230
REMARK   97  A    between atoms: _230  and  _231
REMARK   98  A    between atoms: _236  and  _238
REMARK   99  A    between atoms: _238  and  _239
REMARK  100  A    between atoms: _238  and  _241
REMARK  101  A    between atoms: _241  and  _242
REMARK  102  A    between atoms: _247  and  _248
REMARK  103  A    between atoms: _250  and  _252
REMARK  104  A    between atoms: _252  and  _253
REMARK  105  A    between atoms: _255  and  _257
REMARK  106  A    between atoms: _257  and  _258
REMARK  107  A    between atoms: _257  and  _260
REMARK  108  A    between atoms: _260  and  _261
REMARK  109  A    between atoms: _261  and  _262
REMARK  110  A    between atoms: _265  and  _267
REMARK  111  A    between atoms: _267  and  _268
REMARK  112  A    between atoms: _267  and  _270
REMARK  113  A    between atoms: _270  and  _271
REMARK  114  A    between atoms: _271  and  _272
REMARK  115  A    between atoms: _272  and  _273
REMARK  116  A    between atoms: _273  and  _274
REMARK  117  A    between atoms: _278  and  _280
REMARK  118  A    between atoms: _280  and  _281
REMARK  119  A    between atoms: _280  and  _283
REMARK  120  A    between atoms: _283  and  _284
REMARK  121  A    between atoms: _287  and  _289
REMARK  122  A    between atoms: _289  and  _290
REMARK  123  A    between atoms: _289  and  _292
REMARK  124  A    between atoms: _292  and  _293
REMARK  125  A    between atoms: _298  and  _300
REMARK  126  A    between atoms: _300  and  _301
REMARK  127  A    between atoms: _300  and  _303
REMARK  128  A    between atoms: _303  and  _304
REMARK  129  A    between atoms: _307  and  _309
REMARK  130  A    between atoms: _309  and  _310
REMARK  131  A    between atoms: _309  and  _312
REMARK  132  A    between atoms: _315  and  _317
REMARK  133  A    between atoms: _317  and  _318
REMARK  134  A    between atoms: _317  and  _320
REMARK  135  A    between atoms: _320  and  _321
REMARK  136  A    between atoms: _323  and  _325
REMARK  137  A    between atoms: _325  and  _326
REMARK  138  A    between atoms: _328  and  _330
REMARK  139  A    between atoms: _330  and  _331
REMARK  140  A    between atoms: _330  and  _333
REMARK  141  A    between atoms: _333  and  _334
REMARK                            x       y       z     vdW  Elec       q    Type
REMARK                         _______ _______ _______ _____ _____    ______ ____
ROOT
ATOM      1  O   HOH     1       6.660   9.480  -3.493  0.00  0.00    +0.000 OA
ENDROOT
TORSDOF 0
REMARK  Name = ../refined-set-2016/2yln/2yln_pocket.pdb
REMARK  141 active torsions:
REMARK  status: ('A' for Active; 'I' for Inactive)
REMARK    1  A    between atoms: _1  and  _3
REMARK    2  A    between atoms: _3  and  _4
REMARK    3  A    between atoms: _3  and  _6
REMARK    4  A    between atoms: _6  and  _7
REMARK    5  A    between atoms: _7  and  _8
REMARK    6  A    between atoms: _11  and  _13
REMARK    7  A    between atoms: _13  and  _14
REMARK    8  A    between atoms: _13  and  _16
REMARK    9  A    between atoms: _16  and  _17
REMARK   10  A    between atoms: _22  and  _23
REMARK   11  A    between atoms: _25  and  _27
REMARK   12  A    between atoms: _27  and  _28
REMARK   13  A    between atoms: _27  and  _30
REMARK   14  A    between atoms: _30  and  _31
REMARK   15  A    between atoms: _37  and  _39
REMARK   16  A    between atoms: _39  and  _40
REMARK   17  A    between atoms: _39  and  _42
REMARK   18  A    between atoms: _42  and  _43
REMARK   19  A    between atoms: _46  and  _48
REMARK   20  A    between atoms: _48  and  _49
REMARK   21  A    between atoms: _48  and  _51
REMARK   22  A    between atoms: _51  and  _52
REMARK   23  A    between atoms: _55  and  _57
REMARK   24  A    between atoms: _57  and  _58
REMARK   25  A    between atoms: _57  and  _60
REMARK   26  A    between atoms: _60  and  _61
REMARK   27  A    between atoms: _71  and  _73
REMARK   28  A    between atoms: _73  and  _74
REMARK   29  A    between atoms: _73  and  _76
REMARK   30  A    between atoms: _76  and  _77
REMARK   31  A    between atoms: _80  and  _82
REMARK   32  A    between atoms: _82  and  _83
REMARK   33  A    between atoms: _82  and  _85
REMARK   34  A    between atoms: _85  and  _86
REMARK   35  A    between atoms: _86  and  _87
REMARK   36  A    between atoms: _89  and  _91
REMARK   37  A    between atoms: _91  and  _92
REMARK   38  A    between atoms: _91  and  _94
REMARK   39  A    between atoms: _94  and  _95
REMARK   40  A    between atoms: _95  and  _96
REMARK   41  A    between atoms: _98  and  _100
REMARK   42  A    between atoms: _100  and  _101
REMARK   43  A    between atoms: _100  and  _103
REMARK   44  A    between atoms: _106  and  _108
REMARK   45  A    between atoms: _108  and  _109
REMARK   46  A    between atoms: _112  and  _114
REMARK   47  A    between atoms: _114  and  _115
REMARK   48  A    between atoms: _114  and  _117
REMARK   49  A    between atoms: _117  and  _118
REMARK   50  A    between atoms: _123  and  _125
REMARK   51  A    between atoms: _125  and  _126
REMARK   52  A    between atoms: _125  and  _128
REMARK   53  A    between atoms: _128  and  _129
REMARK   54  A    between atoms: _129  and  _130
REMARK   55  A    between atoms: _135  and  _137
REMARK   56  A    between atoms: _137  and  _138
REMARK   57  A    between atoms: _137  and  _140
REMARK   58  A    between atoms: _143  and  _145
REMARK   59  A    between atoms: _145  and  _146
REMARK   60  A    between atoms: _148  and  _150
REMARK   61  A    between atoms: _150  and  _151
REMARK   62  A    between atoms: _150  and  _153
REMARK   63  A    between atoms: _153  and  _154
REMARK   64  A    between atoms: _157  and  _159
REMARK   65  A    between atoms: _159  and  _160
REMARK   66  A    between atoms: _159  and  _162
REMARK   67  A    between atoms: _162  and  _163
REMARK   68  A    between atoms: _166  and  _168
REMARK   69  A    between atoms: _168  and  _169
REMARK   70  A    between atoms: _168  and  _171
REMARK   71  A    between atoms: _171  and  _172
REMARK   72  A    between atoms: _174  and  _176
REMARK   73  A    between atoms: _176  and  _177
REMARK   74  A    between atoms: _176  and  _179
REMARK   75  A    between atoms: _179  and  _180
REMARK   76  A    between atoms: _180  and  _181
REMARK   77  A    between atoms: _181  and  _182
REMARK   78  A    between atoms: _191  and  _193
REMARK   79  A    between atoms: _193  and  _194
REMARK   80  A    between atoms: _193  and  _196
REMARK   81  A    between atoms: _196  and  _197
REMARK   82  A    between atoms: _199  and  _201
REMARK   83  A    between atoms: _201  and  _202
REMARK   84  A    between atoms: _201  and  _204
REMARK   85  A    between atoms: _204  and  _205
REMARK   86  A    between atoms: _208  and  _210
REMARK   87  A    between atoms: _210  and  _211
REMARK   88  A    between atoms: _210  and  _213
REMARK   89  A    between atoms: _213  and  _214
REMARK   90  A    between atoms: _217  and  _219
REMARK   91  A    between atoms: _219  and  _220
REMARK   92  A    between atoms: _219  and  _222
REMARK   93  A    between atoms: _222  and  _223
REMARK   94  A    between atoms: _225  and  _227
REMARK   95  A    between atoms: _227  and  _228
REMARK   96  A    between atoms: _227  and  _230
REMARK   97  A    between atoms: _230  and  _231
REMARK   98  A    between atoms: _236  and  _238
REMARK   99  A    between atoms: _238  and  _239
REMARK  100  A    between atoms: _238  and  _241
REMARK  101  A    between atoms: _241  and  _242
REMARK  102  A    between atoms: _247  and  _248
REMARK  103  A    between atoms: _250  and  _252
REMARK  104  A    between atoms: _252  and  _253
REMARK  105  A    between atoms: _255  and  _257
REMARK  106  A    between atoms: _257  and  _258
REMARK  107  A    between atoms: _257  and  _260
REMARK  108  A    between atoms: _260  and  _261
REMARK  109  A    between atoms: _261  and  _262
REMARK  110  A    between atoms: _265  and  _267
REMARK  111  A    between atoms: _267  and  _268
REMARK  112  A    between atoms: _267  and  _270
REMARK  113  A    between atoms: _270  and  _271
REMARK  114  A    between atoms: _271  and  _272
REMARK  115  A    between atoms: _272  and  _273
REMARK  116  A    between atoms: _273  and  _274
REMARK  117  A    between atoms: _278  and  _280
REMARK  118  A    between atoms: _280  and  _281
REMARK  119  A    between atoms: _280  and  _283
REMARK  120  A    between atoms: _283  and  _284
REMARK  121  A    between atoms: _287  and  _289
REMARK  122  A    between atoms: _289  and  _290
REMARK  123  A    between atoms: _289  and  _292
REMARK  124  A    between atoms: _292  and  _293
REMARK  125  A    between atoms: _298  and  _300
REMARK  126  A    between atoms: _300  and  _301
REMARK  127  A    between atoms: _300  and  _303
REMARK  128  A    between atoms: _303  and  _304
REMARK  129  A    between atoms: _307  and  _309
REMARK  130  A    between atoms: _309  and  _310
REMARK  131  A    between atoms: _309  and  _312
REMARK  132  A    between atoms: _315  and  _317
REMARK  133  A    between atoms: _317  and  _318
REMARK  134  A    between atoms: _317  and  _320
REMARK  135  A    between atoms: _320  and  _321
REMARK  136  A    between atoms: _323  and  _325
REMARK  137  A    between atoms: _325  and  _326
REMARK  138  A    between atoms: _328  and  _330
REMARK  139  A    between atoms: _330  and  _331
REMARK  140  A    between atoms: _330  and  _333
REMARK  141  A    between atoms: _333  and  _334
REMARK                            x       y       z     vdW  Elec       q    Type
REMARK                         _______ _______ _______ _____ _____    ______ ____
ROOT
ATOM      1  O   HOH     1       5.839  10.683  -5.792  0.00  0.00    +0.000 OA
ENDROOT
TORSDOF 0
REMARK  Name = ../refined-set-2016/2yln/2yln_pocket.pdb
REMARK  141 active torsions:
REMARK  status: ('A' for Active; 'I' for Inactive)
REMARK    1  A    between atoms: _1  and  _3
REMARK    2  A    between atoms: _3  and  _4
REMARK    3  A    between atoms: _3  and  _6
REMARK    4  A    between atoms: _6  and  _7
REMARK    5  A    between atoms: _7  and  _8
REMARK    6  A    between atoms: _11  and  _13
REMARK    7  A    between atoms: _13  and  _14
REMARK    8  A    between atoms: _13  and  _16
REMARK    9  A    between atoms: _16  and  _17
REMARK   10  A    between atoms: _22  and  _23
REMARK   11  A    between atoms: _25  and  _27
REMARK   12  A    between atoms: _27  and  _28
REMARK   13  A    between atoms: _27  and  _30
REMARK   14  A    between atoms: _30  and  _31
REMARK   15  A    between atoms: _37  and  _39
REMARK   16  A    between atoms: _39  and  _40
REMARK   17  A    between atoms: _39  and  _42
REMARK   18  A    between atoms: _42  and  _43
REMARK   19  A    between atoms: _46  and  _48
REMARK   20  A    between atoms: _48  and  _49
REMARK   21  A    between atoms: _48  and  _51
REMARK   22  A    between atoms: _51  and  _52
REMARK   23  A    between atoms: _55  and  _57
REMARK   24  A    between atoms: _57  and  _58
REMARK   25  A    between atoms: _57  and  _60
REMARK   26  A    between atoms: _60  and  _61
REMARK   27  A    between atoms: _71  and  _73
REMARK   28  A    between atoms: _73  and  _74
REMARK   29  A    between atoms: _73  and  _76
REMARK   30  A    between atoms: _76  and  _77
REMARK   31  A    between atoms: _80  and  _82
REMARK   32  A    between atoms: _82  and  _83
REMARK   33  A    between atoms: _82  and  _85
REMARK   34  A    between atoms: _85  and  _86
REMARK   35  A    between atoms: _86  and  _87
REMARK   36  A    between atoms: _89  and  _91
REMARK   37  A    between atoms: _91  and  _92
REMARK   38  A    between atoms: _91  and  _94
REMARK   39  A    between atoms: _94  and  _95
REMARK   40  A    between atoms: _95  and  _96
REMARK   41  A    between atoms: _98  and  _100
REMARK   42  A    between atoms: _100  and  _101
REMARK   43  A    between atoms: _100  and  _103
REMARK   44  A    between atoms: _106  and  _108
REMARK   45  A    between atoms: _108  and  _109
REMARK   46  A    between atoms: _112  and  _114
REMARK   47  A    between atoms: _114  and  _115
REMARK   48  A    between atoms: _114  and  _117
REMARK   49  A    between atoms: _117  and  _118
REMARK   50  A    between atoms: _123  and  _125
REMARK   51  A    between atoms: _125  and  _126
REMARK   52  A    between atoms: _125  and  _128
REMARK   53  A    between atoms: _128  and  _129
REMARK   54  A    between atoms: _129  and  _130
REMARK   55  A    between atoms: _135  and  _137
REMARK   56  A    between atoms: _137  and  _138
REMARK   57  A    between atoms: _137  and  _140
REMARK   58  A    between atoms: _143  and  _145
REMARK   59  A    between atoms: _145  and  _146
REMARK   60  A    between atoms: _148  and  _150
REMARK   61  A    between atoms: _150  and  _151
REMARK   62  A    between atoms: _150  and  _153
REMARK   63  A    between atoms: _153  and  _154
REMARK   64  A    between atoms: _157  and  _159
REMARK   65  A    between atoms: _159  and  _160
REMARK   66  A    between atoms: _159  and  _162
REMARK   67  A    between atoms: _162  and  _163
REMARK   68  A    between atoms: _166  and  _168
REMARK   69  A    between atoms: _168  and  _169
REMARK   70  A    between atoms: _168  and  _171
REMARK   71  A    between atoms: _171  and  _172
REMARK   72  A    between atoms: _174  and  _176
REMARK   73  A    between atoms: _176  and  _177
REMARK   74  A    between atoms: _176  and  _179
REMARK   75  A    between atoms: _179  and  _180
REMARK   76  A    between atoms: _180  and  _181
REMARK   77  A    between atoms: _181  and  _182
REMARK   78  A    between atoms: _191  and  _193
REMARK   79  A    between atoms: _193  and  _194
REMARK   80  A    between atoms: _193  and  _196
REMARK   81  A    between atoms: _196  and  _197
REMARK   82  A    between atoms: _199  and  _201
REMARK   83  A    between atoms: _201  and  _202
REMARK   84  A    between atoms: _201  and  _204
REMARK   85  A    between atoms: _204  and  _205
REMARK   86  A    between atoms: _208  and  _210
REMARK   87  A    between atoms: _210  and  _211
REMARK   88  A    between atoms: _210  and  _213
REMARK   89  A    between atoms: _213  and  _214
REMARK   90  A    between atoms: _217  and  _219
REMARK   91  A    between atoms: _219  and  _220
REMARK   92  A    between atoms: _219  and  _222
REMARK   93  A    between atoms: _222  and  _223
REMARK   94  A    between atoms: _225  and  _227
REMARK   95  A    between atoms: _227  and  _228
REMARK   96  A    between atoms: _227  and  _230
REMARK   97  A    between atoms: _230  and  _231
REMARK   98  A    between atoms: _236  and  _238
REMARK   99  A    between atoms: _238  and  _239
REMARK  100  A    between atoms: _238  and  _241
REMARK  101  A    between atoms: _241  and  _242
REMARK  102  A    between atoms: _247  and  _248
REMARK  103  A    between atoms: _250  and  _252
REMARK  104  A    between atoms: _252  and  _253
REMARK  105  A    between atoms: _255  and  _257
REMARK  106  A    between atoms: _257  and  _258
REMARK  107  A    between atoms: _257  and  _260
REMARK  108  A    between atoms: _260  and  _261
REMARK  109  A    between atoms: _261  and  _262
REMARK  110  A    between atoms: _265  and  _267
REMARK  111  A    between atoms: _267  and  _268
REMARK  112  A    between atoms: _267  and  _270
REMARK  113  A    between atoms: _270  and  _271
REMARK  114  A    between atoms: _271  and  _272
REMARK  115  A    between atoms: _272  and  _273
REMARK  116  A    between atoms: _273  and  _274
REMARK  117  A    between atoms: _278  and  _280
REMARK  118  A    between atoms: _280  and  _281
REMARK  119  A    between atoms: _280  and  _283
REMARK  120  A    between atoms: _283  and  _284
REMARK  121  A    between atoms: _287  and  _289
REMARK  122  A    between atoms: _289  and  _290
REMARK  123  A    between atoms: _289  and  _292
REMARK  124  A    between atoms: _292  and  _293
REMARK  125  A    between atoms: _298  and  _300
REMARK  126  A    between atoms: _300  and  _301
REMARK  127  A    between atoms: _300  and  _303
REMARK  128  A    between atoms: _303  and  _304
REMARK  129  A    between atoms: _307  and  _309
REMARK  130  A    between atoms: _309  and  _310
REMARK  131  A    between atoms: _309  and  _312
REMARK  132  A    between atoms: _315  and  _317
REMARK  133  A    between atoms: _317  and  _318
REMARK  134  A    between atoms: _317  and  _320
REMARK  135  A    between atoms: _320  and  _321
REMARK  136  A    between atoms: _323  and  _325
REMARK  137  A    between atoms: _325  and  _326
REMARK  138  A    between atoms: _328  and  _330
REMARK  139  A    between atoms: _330  and  _331
REMARK  140  A    between atoms: _330  and  _333
REMARK  141  A    between atoms: _333  and  _334
REMARK                            x       y       z     vdW  Elec       q    Type
REMARK                         _______ _______ _______ _____ _____    ______ ____
ROOT
ATOM      1  O   HOH     1       4.202   8.949  -2.554  0.00  0.00    +0.000 OA
ENDROOT
TORSDOF 0
REMARK  Name = ../refined-set-2016/2yln/2yln_pocket.pdb
REMARK  141 active torsions:
REMARK  status: ('A' for Active; 'I' for Inactive)
REMARK    1  A    between atoms: _1  and  _3
REMARK    2  A    between atoms: _3  and  _4
REMARK    3  A    between atoms: _3  and  _6
REMARK    4  A    between atoms: _6  and  _7
REMARK    5  A    between atoms: _7  and  _8
REMARK    6  A    between atoms: _11  and  _13
REMARK    7  A    between atoms: _13  and  _14
REMARK    8  A    between atoms: _13  and  _16
REMARK    9  A    between atoms: _16  and  _17
REMARK   10  A    between atoms: _22  and  _23
REMARK   11  A    between atoms: _25  and  _27
REMARK   12  A    between atoms: _27  and  _28
REMARK   13  A    between atoms: _27  and  _30
REMARK   14  A    between atoms: _30  and  _31
REMARK   15  A    between atoms: _37  and  _39
REMARK   16  A    between atoms: _39  and  _40
REMARK   17  A    between atoms: _39  and  _42
REMARK   18  A    between atoms: _42  and  _43
REMARK   19  A    between atoms: _46  and  _48
REMARK   20  A    between atoms: _48  and  _49
REMARK   21  A    between atoms: _48  and  _51
REMARK   22  A    between atoms: _51  and  _52
REMARK   23  A    between atoms: _55  and  _57
REMARK   24  A    between atoms: _57  and  _58
REMARK   25  A    between atoms: _57  and  _60
REMARK   26  A    between atoms: _60  and  _61
REMARK   27  A    between atoms: _71  and  _73
REMARK   28  A    between atoms: _73  and  _74
REMARK   29  A    between atoms: _73  and  _76
REMARK   30  A    between atoms: _76  and  _77
REMARK   31  A    between atoms: _80  and  _82
REMARK   32  A    between atoms: _82  and  _83
REMARK   33  A    between atoms: _82  and  _85
REMARK   34  A    between atoms: _85  and  _86
REMARK   35  A    between atoms: _86  and  _87
REMARK   36  A    between atoms: _89  and  _91
REMARK   37  A    between atoms: _91  and  _92
REMARK   38  A    between atoms: _91  and  _94
REMARK   39  A    between atoms: _94  and  _95
REMARK   40  A    between atoms: _95  and  _96
REMARK   41  A    between atoms: _98  and  _100
REMARK   42  A    between atoms: _100  and  _101
REMARK   43  A    between atoms: _100  and  _103
REMARK   44  A    between atoms: _106  and  _108
REMARK   45  A    between atoms: _108  and  _109
REMARK   46  A    between atoms: _112  and  _114
REMARK   47  A    between atoms: _114  and  _115
REMARK   48  A    between atoms: _114  and  _117
REMARK   49  A    between atoms: _117  and  _118
REMARK   50  A    between atoms: _123  and  _125
REMARK   51  A    between atoms: _125  and  _126
REMARK   52  A    between atoms: _125  and  _128
REMARK   53  A    between atoms: _128  and  _129
REMARK   54  A    between atoms: _129  and  _130
REMARK   55  A    between atoms: _135  and  _137
REMARK   56  A    between atoms: _137  and  _138
REMARK   57  A    between atoms: _137  and  _140
REMARK   58  A    between atoms: _143  and  _145
REMARK   59  A    between atoms: _145  and  _146
REMARK   60  A    between atoms: _148  and  _150
REMARK   61  A    between atoms: _150  and  _151
REMARK   62  A    between atoms: _150  and  _153
REMARK   63  A    between atoms: _153  and  _154
REMARK   64  A    between atoms: _157  and  _159
REMARK   65  A    between atoms: _159  and  _160
REMARK   66  A    between atoms: _159  and  _162
REMARK   67  A    between atoms: _162  and  _163
REMARK   68  A    between atoms: _166  and  _168
REMARK   69  A    between atoms: _168  and  _169
REMARK   70  A    between atoms: _168  and  _171
REMARK   71  A    between atoms: _171  and  _172
REMARK   72  A    between atoms: _174  and  _176
REMARK   73  A    between atoms: _176  and  _177
REMARK   74  A    between atoms: _176  and  _179
REMARK   75  A    between atoms: _179  and  _180
REMARK   76  A    between atoms: _180  and  _181
REMARK   77  A    between atoms: _181  and  _182
REMARK   78  A    between atoms: _191  and  _193
REMARK   79  A    between atoms: _193  and  _194
REMARK   80  A    between atoms: _193  and  _196
REMARK   81  A    between atoms: _196  and  _197
REMARK   82  A    between atoms: _199  and  _201
REMARK   83  A    between atoms: _201  and  _202
REMARK   84  A    between atoms: _201  and  _204
REMARK   85  A    between atoms: _204  and  _205
REMARK   86  A    between atoms: _208  and  _210
REMARK   87  A    between atoms: _210  and  _211
REMARK   88  A    between atoms: _210  and  _213
REMARK   89  A    between atoms: _213  and  _214
REMARK   90  A    between atoms: _217  and  _219
REMARK   91  A    between atoms: _219  and  _220
REMARK   92  A    between atoms: _219  and  _222
REMARK   93  A    between atoms: _222  and  _223
REMARK   94  A    between atoms: _225  and  _227
REMARK   95  A    between atoms: _227  and  _228
REMARK   96  A    between atoms: _227  and  _230
REMARK   97  A    between atoms: _230  and  _231
REMARK   98  A    between atoms: _236  and  _238
REMARK   99  A    between atoms: _238  and  _239
REMARK  100  A    between atoms: _238  and  _241
REMARK  101  A    between atoms: _241  and  _242
REMARK  102  A    between atoms: _247  and  _248
REMARK  103  A    between atoms: _250  and  _252
REMARK  104  A    between atoms: _252  and  _253
REMARK  105  A    between atoms: _255  and  _257
REMARK  106  A    between atoms: _257  and  _258
REMARK  107  A    between atoms: _257  and  _260
REMARK  108  A    between atoms: _260  and  _261
REMARK  109  A    between atoms: _261  and  _262
REMARK  110  A    between atoms: _265  and  _267
REMARK  111  A    between atoms: _267  and  _268
REMARK  112  A    between atoms: _267  and  _270
REMARK  113  A    between atoms: _270  and  _271
REMARK  114  A    between atoms: _271  and  _272
REMARK  115  A    between atoms: _272  and  _273
REMARK  116  A    between atoms: _273  and  _274
REMARK  117  A    between atoms: _278  and  _280
REMARK  118  A    between atoms: _280  and  _281
REMARK  119  A    between atoms: _280  and  _283
REMARK  120  A    between atoms: _283  and  _284
REMARK  121  A    between atoms: _287  and  _289
REMARK  122  A    between atoms: _289  and  _290
REMARK  123  A    between atoms: _289  and  _292
REMARK  124  A    between atoms: _292  and  _293
REMARK  125  A    between atoms: _298  and  _300
REMARK  126  A    between atoms: _300  and  _301
REMARK  127  A    between atoms: _300  and  _303
REMARK  128  A    between atoms: _303  and  _304
REMARK  129  A    between atoms: _307  and  _309
REMARK  130  A    between atoms: _309  and  _310
REMARK  131  A    between atoms: _309  and  _312
REMARK  132  A    between atoms: _315  and  _317
REMARK  133  A    between atoms: _317  and  _318
REMARK  134  A    between atoms: _317  and  _320
REMARK  135  A    between atoms: _320  and  _321
REMARK  136  A    between atoms: _323  and  _325
REMARK  137  A    between atoms: _325  and  _326
REMARK  138  A    between atoms: _328  and  _330
REMARK  139  A    between atoms: _330  and  _331
REMARK  140  A    between atoms: _330  and  _333
REMARK  141  A    between atoms: _333  and  _334
REMARK                            x       y       z     vdW  Elec       q    Type
REMARK                         _______ _______ _______ _____ _____    ______ ____
ROOT
ATOM      1  O   HOH     1       2.629   7.405   0.768  0.00  0.00    +0.000 OA
ENDROOT
TORSDOF 0
REMARK  Name = ../refined-set-2016/2yln/2yln_pocket.pdb
REMARK  141 active torsions:
REMARK  status: ('A' for Active; 'I' for Inactive)
REMARK    1  A    between atoms: _1  and  _3
REMARK    2  A    between atoms: _3  and  _4
REMARK    3  A    between atoms: _3  and  _6
REMARK    4  A    between atoms: _6  and  _7
REMARK    5  A    between atoms: _7  and  _8
REMARK    6  A    between atoms: _11  and  _13
REMARK    7  A    between atoms: _13  and  _14
REMARK    8  A    between atoms: _13  and  _16
REMARK    9  A    between atoms: _16  and  _17
REMARK   10  A    between atoms: _22  and  _23
REMARK   11  A    between atoms: _25  and  _27
REMARK   12  A    between atoms: _27  and  _28
REMARK   13  A    between atoms: _27  and  _30
REMARK   14  A    between atoms: _30  and  _31
REMARK   15  A    between atoms: _37  and  _39
REMARK   16  A    between atoms: _39  and  _40
REMARK   17  A    between atoms: _39  and  _42
REMARK   18  A    between atoms: _42  and  _43
REMARK   19  A    between atoms: _46  and  _48
REMARK   20  A    between atoms: _48  and  _49
REMARK   21  A    between atoms: _48  and  _51
REMARK   22  A    between atoms: _51  and  _52
REMARK   23  A    between atoms: _55  and  _57
REMARK   24  A    between atoms: _57  and  _58
REMARK   25  A    between atoms: _57  and  _60
REMARK   26  A    between atoms: _60  and  _61
REMARK   27  A    between atoms: _71  and  _73
REMARK   28  A    between atoms: _73  and  _74
REMARK   29  A    between atoms: _73  and  _76
REMARK   30  A    between atoms: _76  and  _77
REMARK   31  A    between atoms: _80  and  _82
REMARK   32  A    between atoms: _82  and  _83
REMARK   33  A    between atoms: _82  and  _85
REMARK   34  A    between atoms: _85  and  _86
REMARK   35  A    between atoms: _86  and  _87
REMARK   36  A    between atoms: _89  and  _91
REMARK   37  A    between atoms: _91  and  _92
REMARK   38  A    between atoms: _91  and  _94
REMARK   39  A    between atoms: _94  and  _95
REMARK   40  A    between atoms: _95  and  _96
REMARK   41  A    between atoms: _98  and  _100
REMARK   42  A    between atoms: _100  and  _101
REMARK   43  A    between atoms: _100  and  _103
REMARK   44  A    between atoms: _106  and  _108
REMARK   45  A    between atoms: _108  and  _109
REMARK   46  A    between atoms: _112  and  _114
REMARK   47  A    between atoms: _114  and  _115
REMARK   48  A    between atoms: _114  and  _117
REMARK   49  A    between atoms: _117  and  _118
REMARK   50  A    between atoms: _123  and  _125
REMARK   51  A    between atoms: _125  and  _126
REMARK   52  A    between atoms: _125  and  _128
REMARK   53  A    between atoms: _128  and  _129
REMARK   54  A    between atoms: _129  and  _130
REMARK   55  A    between atoms: _135  and  _137
REMARK   56  A    between atoms: _137  and  _138
REMARK   57  A    between atoms: _137  and  _140
REMARK   58  A    between atoms: _143  and  _145
REMARK   59  A    between atoms: _145  and  _146
REMARK   60  A    between atoms: _148  and  _150
REMARK   61  A    between atoms: _150  and  _151
REMARK   62  A    between atoms: _150  and  _153
REMARK   63  A    between atoms: _153  and  _154
REMARK   64  A    between atoms: _157  and  _159
REMARK   65  A    between atoms: _159  and  _160
REMARK   66  A    between atoms: _159  and  _162
REMARK   67  A    between atoms: _162  and  _163
REMARK   68  A    between atoms: _166  and  _168
REMARK   69  A    between atoms: _168  and  _169
REMARK   70  A    between atoms: _168  and  _171
REMARK   71  A    between atoms: _171  and  _172
REMARK   72  A    between atoms: _174  and  _176
REMARK   73  A    between atoms: _176  and  _177
REMARK   74  A    between atoms: _176  and  _179
REMARK   75  A    between atoms: _179  and  _180
REMARK   76  A    between atoms: _180  and  _181
REMARK   77  A    between atoms: _181  and  _182
REMARK   78  A    between atoms: _191  and  _193
REMARK   79  A    between atoms: _193  and  _194
REMARK   80  A    between atoms: _193  and  _196
REMARK   81  A    between atoms: _196  and  _197
REMARK   82  A    between atoms: _199  and  _201
REMARK   83  A    between atoms: _201  and  _202
REMARK   84  A    between atoms: _201  and  _204
REMARK   85  A    between atoms: _204  and  _205
REMARK   86  A    between atoms: _208  and  _210
REMARK   87  A    between atoms: _210  and  _211
REMARK   88  A    between atoms: _210  and  _213
REMARK   89  A    between atoms: _213  and  _214
REMARK   90  A    between atoms: _217  and  _219
REMARK   91  A    between atoms: _219  and  _220
REMARK   92  A    between atoms: _219  and  _222
REMARK   93  A    between atoms: _222  and  _223
REMARK   94  A    between atoms: _225  and  _227
REMARK   95  A    between atoms: _227  and  _228
REMARK   96  A    between atoms: _227  and  _230
REMARK   97  A    between atoms: _230  and  _231
REMARK   98  A    between atoms: _236  and  _238
REMARK   99  A    between atoms: _238  and  _239
REMARK  100  A    between atoms: _238  and  _241
REMARK  101  A    between atoms: _241  and  _242
REMARK  102  A    between atoms: _247  and  _248
REMARK  103  A    between atoms: _250  and  _252
REMARK  104  A    between atoms: _252  and  _253
REMARK  105  A    between atoms: _255  and  _257
REMARK  106  A    between atoms: _257  and  _258
REMARK  107  A    between atoms: _257  and  _260
REMARK  108  A    between atoms: _260  and  _261
REMARK  109  A    between atoms: _261  and  _262
REMARK  110  A    between atoms: _265  and  _267
REMARK  111  A    between atoms: _267  and  _268
REMARK  112  A    between atoms: _267  and  _270
REMARK  113  A    between atoms: _270  and  _271
REMARK  114  A    between atoms: _271  and  _272
REMARK  115  A    between atoms: _272  and  _273
REMARK  116  A    between atoms: _273  and  _274
REMARK  117  A    between atoms: _278  and  _280
REMARK  118  A    between atoms: _280  and  _281
REMARK  119  A    between atoms: _280  and  _283
REMARK  120  A    between atoms: _283  and  _284
REMARK  121  A    between atoms: _287  and  _289
REMARK  122  A    between atoms: _289  and  _290
REMARK  123  A    between atoms: _289  and  _292
REMARK  124  A    between atoms: _292  and  _293
REMARK  125  A    between atoms: _298  and  _300
REMARK  126  A    between atoms: _300  and  _301
REMARK  127  A    between atoms: _300  and  _303
REMARK  128  A    between atoms: _303  and  _304
REMARK  129  A    between atoms: _307  and  _309
REMARK  130  A    between atoms: _309  and  _310
REMARK  131  A    between atoms: _309  and  _312
REMARK  132  A    between atoms: _315  and  _317
REMARK  133  A    between atoms: _317  and  _318
REMARK  134  A    between atoms: _317  and  _320
REMARK  135  A    between atoms: _320  and  _321
REMARK  136  A    between atoms: _323  and  _325
REMARK  137  A    between atoms: _325  and  _326
REMARK  138  A    between atoms: _328  and  _330
REMARK  139  A    between atoms: _330  and  _331
REMARK  140  A    between atoms: _330  and  _333
REMARK  141  A    between atoms: _333  and  _334
REMARK                            x       y       z     vdW  Elec       q    Type
REMARK                         _______ _______ _______ _____ _____    ______ ____
ROOT
ATOM      1  O   HOH     1      15.488   2.811  -2.148  0.00  0.00    +0.000 OA
ENDROOT
TORSDOF 0
REMARK  Name = ../refined-set-2016/2yln/2yln_pocket.pdb
REMARK  141 active torsions:
REMARK  status: ('A' for Active; 'I' for Inactive)
REMARK    1  A    between atoms: _1  and  _3
REMARK    2  A    between atoms: _3  and  _4
REMARK    3  A    between atoms: _3  and  _6
REMARK    4  A    between atoms: _6  and  _7
REMARK    5  A    between atoms: _7  and  _8
REMARK    6  A    between atoms: _11  and  _13
REMARK    7  A    between atoms: _13  and  _14
REMARK    8  A    between atoms: _13  and  _16
REMARK    9  A    between atoms: _16  and  _17
REMARK   10  A    between atoms: _22  and  _23
REMARK   11  A    between atoms: _25  and  _27
REMARK   12  A    between atoms: _27  and  _28
REMARK   13  A    between atoms: _27  and  _30
REMARK   14  A    between atoms: _30  and  _31
REMARK   15  A    between atoms: _37  and  _39
REMARK   16  A    between atoms: _39  and  _40
REMARK   17  A    between atoms: _39  and  _42
REMARK   18  A    between atoms: _42  and  _43
REMARK   19  A    between atoms: _46  and  _48
REMARK   20  A    between atoms: _48  and  _49
REMARK   21  A    between atoms: _48  and  _51
REMARK   22  A    between atoms: _51  and  _52
REMARK   23  A    between atoms: _55  and  _57
REMARK   24  A    between atoms: _57  and  _58
REMARK   25  A    between atoms: _57  and  _60
REMARK   26  A    between atoms: _60  and  _61
REMARK   27  A    between atoms: _71  and  _73
REMARK   28  A    between atoms: _73  and  _74
REMARK   29  A    between atoms: _73  and  _76
REMARK   30  A    between atoms: _76  and  _77
REMARK   31  A    between atoms: _80  and  _82
REMARK   32  A    between atoms: _82  and  _83
REMARK   33  A    between atoms: _82  and  _85
REMARK   34  A    between atoms: _85  and  _86
REMARK   35  A    between atoms: _86  and  _87
REMARK   36  A    between atoms: _89  and  _91
REMARK   37  A    between atoms: _91  and  _92
REMARK   38  A    between atoms: _91  and  _94
REMARK   39  A    between atoms: _94  and  _95
REMARK   40  A    between atoms: _95  and  _96
REMARK   41  A    between atoms: _98  and  _100
REMARK   42  A    between atoms: _100  and  _101
REMARK   43  A    between atoms: _100  and  _103
REMARK   44  A    between atoms: _106  and  _108
REMARK   45  A    between atoms: _108  and  _109
REMARK   46  A    between atoms: _112  and  _114
REMARK   47  A    between atoms: _114  and  _115
REMARK   48  A    between atoms: _114  and  _117
REMARK   49  A    between atoms: _117  and  _118
REMARK   50  A    between atoms: _123  and  _125
REMARK   51  A    between atoms: _125  and  _126
REMARK   52  A    between atoms: _125  and  _128
REMARK   53  A    between atoms: _128  and  _129
REMARK   54  A    between atoms: _129  and  _130
REMARK   55  A    between atoms: _135  and  _137
REMARK   56  A    between atoms: _137  and  _138
REMARK   57  A    between atoms: _137  and  _140
REMARK   58  A    between atoms: _143  and  _145
REMARK   59  A    between atoms: _145  and  _146
REMARK   60  A    between atoms: _148  and  _150
REMARK   61  A    between atoms: _150  and  _151
REMARK   62  A    between atoms: _150  and  _153
REMARK   63  A    between atoms: _153  and  _154
REMARK   64  A    between atoms: _157  and  _159
REMARK   65  A    between atoms: _159  and  _160
REMARK   66  A    between atoms: _159  and  _162
REMARK   67  A    between atoms: _162  and  _163
REMARK   68  A    between atoms: _166  and  _168
REMARK   69  A    between atoms: _168  and  _169
REMARK   70  A    between atoms: _168  and  _171
REMARK   71  A    between atoms: _171  and  _172
REMARK   72  A    between atoms: _174  and  _176
REMARK   73  A    between atoms: _176  and  _177
REMARK   74  A    between atoms: _176  and  _179
REMARK   75  A    between atoms: _179  and  _180
REMARK   76  A    between atoms: _180  and  _181
REMARK   77  A    between atoms: _181  and  _182
REMARK   78  A    between atoms: _191  and  _193
REMARK   79  A    between atoms: _193  and  _194
REMARK   80  A    between atoms: _193  and  _196
REMARK   81  A    between atoms: _196  and  _197
REMARK   82  A    between atoms: _199  and  _201
REMARK   83  A    between atoms: _201  and  _202
REMARK   84  A    between atoms: _201  and  _204
REMARK   85  A    between atoms: _204  and  _205
REMARK   86  A    between atoms: _208  and  _210
REMARK   87  A    between atoms: _210  and  _211
REMARK   88  A    between atoms: _210  and  _213
REMARK   89  A    between atoms: _213  and  _214
REMARK   90  A    between atoms: _217  and  _219
REMARK   91  A    between atoms: _219  and  _220
REMARK   92  A    between atoms: _219  and  _222
REMARK   93  A    between atoms: _222  and  _223
REMARK   94  A    between atoms: _225  and  _227
REMARK   95  A    between atoms: _227  and  _228
REMARK   96  A    between atoms: _227  and  _230
REMARK   97  A    between atoms: _230  and  _231
REMARK   98  A    between atoms: _236  and  _238
REMARK   99  A    between atoms: _238  and  _239
REMARK  100  A    between atoms: _238  and  _241
REMARK  101  A    between atoms: _241  and  _242
REMARK  102  A    between atoms: _247  and  _248
REMARK  103  A    between atoms: _250  and  _252
REMARK  104  A    between atoms: _252  and  _253
REMARK  105  A    between atoms: _255  and  _257
REMARK  106  A    between atoms: _257  and  _258
REMARK  107  A    between atoms: _257  and  _260
REMARK  108  A    between atoms: _260  and  _261
REMARK  109  A    between atoms: _261  and  _262
REMARK  110  A    between atoms: _265  and  _267
REMARK  111  A    between atoms: _267  and  _268
REMARK  112  A    between atoms: _267  and  _270
REMARK  113  A    between atoms: _270  and  _271
REMARK  114  A    between atoms: _271  and  _272
REMARK  115  A    between atoms: _272  and  _273
REMARK  116  A    between atoms: _273  and  _274
REMARK  117  A    between atoms: _278  and  _280
REMARK  118  A    between atoms: _280  and  _281
REMARK  119  A    between atoms: _280  and  _283
REMARK  120  A    between atoms: _283  and  _284
REMARK  121  A    between atoms: _287  and  _289
REMARK  122  A    between atoms: _289  and  _290
REMARK  123  A    between atoms: _289  and  _292
REMARK  124  A    between atoms: _292  and  _293
REMARK  125  A    between atoms: _298  and  _300
REMARK  126  A    between atoms: _300  and  _301
REMARK  127  A    between atoms: _300  and  _303
REMARK  128  A    between atoms: _303  and  _304
REMARK  129  A    between atoms: _307  and  _309
REMARK  130  A    between atoms: _309  and  _310
REMARK  131  A    between atoms: _309  and  _312
REMARK  132  A    between atoms: _315  and  _317
REMARK  133  A    between atoms: _317  and  _318
REMARK  134  A    between atoms: _317  and  _320
REMARK  135  A    between atoms: _320  and  _321
REMARK  136  A    between atoms: _323  and  _325
REMARK  137  A    between atoms: _325  and  _326
REMARK  138  A    between atoms: _328  and  _330
REMARK  139  A    between atoms: _330  and  _331
REMARK  140  A    between atoms: _330  and  _333
REMARK  141  A    between atoms: _333  and  _334
REMARK                            x       y       z     vdW  Elec       q    Type
REMARK                         _______ _______ _______ _____ _____    ______ ____
ROOT
ATOM      1  O   HOH     1      12.682   1.186  -6.244  0.00  0.00    +0.000 OA
ENDROOT
TORSDOF 0
REMARK  Name = ../refined-set-2016/2yln/2yln_pocket.pdb
REMARK  141 active torsions:
REMARK  status: ('A' for Active; 'I' for Inactive)
REMARK    1  A    between atoms: _1  and  _3
REMARK    2  A    between atoms: _3  and  _4
REMARK    3  A    between atoms: _3  and  _6
REMARK    4  A    between atoms: _6  and  _7
REMARK    5  A    between atoms: _7  and  _8
REMARK    6  A    between atoms: _11  and  _13
REMARK    7  A    between atoms: _13  and  _14
REMARK    8  A    between atoms: _13  and  _16
REMARK    9  A    between atoms: _16  and  _17
REMARK   10  A    between atoms: _22  and  _23
REMARK   11  A    between atoms: _25  and  _27
REMARK   12  A    between atoms: _27  and  _28
REMARK   13  A    between atoms: _27  and  _30
REMARK   14  A    between atoms: _30  and  _31
REMARK   15  A    between atoms: _37  and  _39
REMARK   16  A    between atoms: _39  and  _40
REMARK   17  A    between atoms: _39  and  _42
REMARK   18  A    between atoms: _42  and  _43
REMARK   19  A    between atoms: _46  and  _48
REMARK   20  A    between atoms: _48  and  _49
REMARK   21  A    between atoms: _48  and  _51
REMARK   22  A    between atoms: _51  and  _52
REMARK   23  A    between atoms: _55  and  _57
REMARK   24  A    between atoms: _57  and  _58
REMARK   25  A    between atoms: _57  and  _60
REMARK   26  A    between atoms: _60  and  _61
REMARK   27  A    between atoms: _71  and  _73
REMARK   28  A    between atoms: _73  and  _74
REMARK   29  A    between atoms: _73  and  _76
REMARK   30  A    between atoms: _76  and  _77
REMARK   31  A    between atoms: _80  and  _82
REMARK   32  A    between atoms: _82  and  _83
REMARK   33  A    between atoms: _82  and  _85
REMARK   34  A    between atoms: _85  and  _86
REMARK   35  A    between atoms: _86  and  _87
REMARK   36  A    between atoms: _89  and  _91
REMARK   37  A    between atoms: _91  and  _92
REMARK   38  A    between atoms: _91  and  _94
REMARK   39  A    between atoms: _94  and  _95
REMARK   40  A    between atoms: _95  and  _96
REMARK   41  A    between atoms: _98  and  _100
REMARK   42  A    between atoms: _100  and  _101
REMARK   43  A    between atoms: _100  and  _103
REMARK   44  A    between atoms: _106  and  _108
REMARK   45  A    between atoms: _108  and  _109
REMARK   46  A    between atoms: _112  and  _114
REMARK   47  A    between atoms: _114  and  _115
REMARK   48  A    between atoms: _114  and  _117
REMARK   49  A    between atoms: _117  and  _118
REMARK   50  A    between atoms: _123  and  _125
REMARK   51  A    between atoms: _125  and  _126
REMARK   52  A    between atoms: _125  and  _128
REMARK   53  A    between atoms: _128  and  _129
REMARK   54  A    between atoms: _129  and  _130
REMARK   55  A    between atoms: _135  and  _137
REMARK   56  A    between atoms: _137  and  _138
REMARK   57  A    between atoms: _137  and  _140
REMARK   58  A    between atoms: _143  and  _145
REMARK   59  A    between atoms: _145  and  _146
REMARK   60  A    between atoms: _148  and  _150
REMARK   61  A    between atoms: _150  and  _151
REMARK   62  A    between atoms: _150  and  _153
REMARK   63  A    between atoms: _153  and  _154
REMARK   64  A    between atoms: _157  and  _159
REMARK   65  A    between atoms: _159  and  _160
REMARK   66  A    between atoms: _159  and  _162
REMARK   67  A    between atoms: _162  and  _163
REMARK   68  A    between atoms: _166  and  _168
REMARK   69  A    between atoms: _168  and  _169
REMARK   70  A    between atoms: _168  and  _171
REMARK   71  A    between atoms: _171  and  _172
REMARK   72  A    between atoms: _174  and  _176
REMARK   73  A    between atoms: _176  and  _177
REMARK   74  A    between atoms: _176  and  _179
REMARK   75  A    between atoms: _179  and  _180
REMARK   76  A    between atoms: _180  and  _181
REMARK   77  A    between atoms: _181  and  _182
REMARK   78  A    between atoms: _191  and  _193
REMARK   79  A    between atoms: _193  and  _194
REMARK   80  A    between atoms: _193  and  _196
REMARK   81  A    between atoms: _196  and  _197
REMARK   82  A    between atoms: _199  and  _201
REMARK   83  A    between atoms: _201  and  _202
REMARK   84  A    between atoms: _201  and  _204
REMARK   85  A    between atoms: _204  and  _205
REMARK   86  A    between atoms: _208  and  _210
REMARK   87  A    between atoms: _210  and  _211
REMARK   88  A    between atoms: _210  and  _213
REMARK   89  A    between atoms: _213  and  _214
REMARK   90  A    between atoms: _217  and  _219
REMARK   91  A    between atoms: _219  and  _220
REMARK   92  A    between atoms: _219  and  _222
REMARK   93  A    between atoms: _222  and  _223
REMARK   94  A    between atoms: _225  and  _227
REMARK   95  A    between atoms: _227  and  _228
REMARK   96  A    between atoms: _227  and  _230
REMARK   97  A    between atoms: _230  and  _231
REMARK   98  A    between atoms: _236  and  _238
REMARK   99  A    between atoms: _238  and  _239
REMARK  100  A    between atoms: _238  and  _241
REMARK  101  A    between atoms: _241  and  _242
REMARK  102  A    between atoms: _247  and  _248
REMARK  103  A    between atoms: _250  and  _252
REMARK  104  A    between atoms: _252  and  _253
REMARK  105  A    between atoms: _255  and  _257
REMARK  106  A    between atoms: _257  and  _258
REMARK  107  A    between atoms: _257  and  _260
REMARK  108  A    between atoms: _260  and  _261
REMARK  109  A    between atoms: _261  and  _262
REMARK  110  A    between atoms: _265  and  _267
REMARK  111  A    between atoms: _267  and  _268
REMARK  112  A    between atoms: _267  and  _270
REMARK  113  A    between atoms: _270  and  _271
REMARK  114  A    between atoms: _271  and  _272
REMARK  115  A    between atoms: _272  and  _273
REMARK  116  A    between atoms: _273  and  _274
REMARK  117  A    between atoms: _278  and  _280
REMARK  118  A    between atoms: _280  and  _281
REMARK  119  A    between atoms: _280  and  _283
REMARK  120  A    between atoms: _283  and  _284
REMARK  121  A    between atoms: _287  and  _289
REMARK  122  A    between atoms: _289  and  _290
REMARK  123  A    between atoms: _289  and  _292
REMARK  124  A    between atoms: _292  and  _293
REMARK  125  A    between atoms: _298  and  _300
REMARK  126  A    between atoms: _300  and  _301
REMARK  127  A    between atoms: _300  and  _303
REMARK  128  A    between atoms: _303  and  _304
REMARK  129  A    between atoms: _307  and  _309
REMARK  130  A    between atoms: _309  and  _310
REMARK  131  A    between atoms: _309  and  _312
REMARK  132  A    between atoms: _315  and  _317
REMARK  133  A    between atoms: _317  and  _318
REMARK  134  A    between atoms: _317  and  _320
REMARK  135  A    between atoms: _320  and  _321
REMARK  136  A    between atoms: _323  and  _325
REMARK  137  A    between atoms: _325  and  _326
REMARK  138  A    between atoms: _328  and  _330
REMARK  139  A    between atoms: _330  and  _331
REMARK  140  A    between atoms: _330  and  _333
REMARK  141  A    between atoms: _333  and  _334
REMARK                            x       y       z     vdW  Elec       q    Type
REMARK                         _______ _______ _______ _____ _____    ______ ____
ROOT
ATOM      1  O   HOH     1       2.318  -0.910  -5.972  0.00  0.00    +0.000 OA
ENDROOT
TORSDOF 0
REMARK  Name = ../refined-set-2016/2yln/2yln_pocket.pdb
REMARK  141 active torsions:
REMARK  status: ('A' for Active; 'I' for Inactive)
REMARK    1  A    between atoms: _1  and  _3
REMARK    2  A    between atoms: _3  and  _4
REMARK    3  A    between atoms: _3  and  _6
REMARK    4  A    between atoms: _6  and  _7
REMARK    5  A    between atoms: _7  and  _8
REMARK    6  A    between atoms: _11  and  _13
REMARK    7  A    between atoms: _13  and  _14
REMARK    8  A    between atoms: _13  and  _16
REMARK    9  A    between atoms: _16  and  _17
REMARK   10  A    between atoms: _22  and  _23
REMARK   11  A    between atoms: _25  and  _27
REMARK   12  A    between atoms: _27  and  _28
REMARK   13  A    between atoms: _27  and  _30
REMARK   14  A    between atoms: _30  and  _31
REMARK   15  A    between atoms: _37  and  _39
REMARK   16  A    between atoms: _39  and  _40
REMARK   17  A    between atoms: _39  and  _42
REMARK   18  A    between atoms: _42  and  _43
REMARK   19  A    between atoms: _46  and  _48
REMARK   20  A    between atoms: _48  and  _49
REMARK   21  A    between atoms: _48  and  _51
REMARK   22  A    between atoms: _51  and  _52
REMARK   23  A    between atoms: _55  and  _57
REMARK   24  A    between atoms: _57  and  _58
REMARK   25  A    between atoms: _57  and  _60
REMARK   26  A    between atoms: _60  and  _61
REMARK   27  A    between atoms: _71  and  _73
REMARK   28  A    between atoms: _73  and  _74
REMARK   29  A    between atoms: _73  and  _76
REMARK   30  A    between atoms: _76  and  _77
REMARK   31  A    between atoms: _80  and  _82
REMARK   32  A    between atoms: _82  and  _83
REMARK   33  A    between atoms: _82  and  _85
REMARK   34  A    between atoms: _85  and  _86
REMARK   35  A    between atoms: _86  and  _87
REMARK   36  A    between atoms: _89  and  _91
REMARK   37  A    between atoms: _91  and  _92
REMARK   38  A    between atoms: _91  and  _94
REMARK   39  A    between atoms: _94  and  _95
REMARK   40  A    between atoms: _95  and  _96
REMARK   41  A    between atoms: _98  and  _100
REMARK   42  A    between atoms: _100  and  _101
REMARK   43  A    between atoms: _100  and  _103
REMARK   44  A    between atoms: _106  and  _108
REMARK   45  A    between atoms: _108  and  _109
REMARK   46  A    between atoms: _112  and  _114
REMARK   47  A    between atoms: _114  and  _115
REMARK   48  A    between atoms: _114  and  _117
REMARK   49  A    between atoms: _117  and  _118
REMARK   50  A    between atoms: _123  and  _125
REMARK   51  A    between atoms: _125  and  _126
REMARK   52  A    between atoms: _125  and  _128
REMARK   53  A    between atoms: _128  and  _129
REMARK   54  A    between atoms: _129  and  _130
REMARK   55  A    between atoms: _135  and  _137
REMARK   56  A    between atoms: _137  and  _138
REMARK   57  A    between atoms: _137  and  _140
REMARK   58  A    between atoms: _143  and  _145
REMARK   59  A    between atoms: _145  and  _146
REMARK   60  A    between atoms: _148  and  _150
REMARK   61  A    between atoms: _150  and  _151
REMARK   62  A    between atoms: _150  and  _153
REMARK   63  A    between atoms: _153  and  _154
REMARK   64  A    between atoms: _157  and  _159
REMARK   65  A    between atoms: _159  and  _160
REMARK   66  A    between atoms: _159  and  _162
REMARK   67  A    between atoms: _162  and  _163
REMARK   68  A    between atoms: _166  and  _168
REMARK   69  A    between atoms: _168  and  _169
REMARK   70  A    between atoms: _168  and  _171
REMARK   71  A    between atoms: _171  and  _172
REMARK   72  A    between atoms: _174  and  _176
REMARK   73  A    between atoms: _176  and  _177
REMARK   74  A    between atoms: _176  and  _179
REMARK   75  A    between atoms: _179  and  _180
REMARK   76  A    between atoms: _180  and  _181
REMARK   77  A    between atoms: _181  and  _182
REMARK   78  A    between atoms: _191  and  _193
REMARK   79  A    between atoms: _193  and  _194
REMARK   80  A    between atoms: _193  and  _196
REMARK   81  A    between atoms: _196  and  _197
REMARK   82  A    between atoms: _199  and  _201
REMARK   83  A    between atoms: _201  and  _202
REMARK   84  A    between atoms: _201  and  _204
REMARK   85  A    between atoms: _204  and  _205
REMARK   86  A    between atoms: _208  and  _210
REMARK   87  A    between atoms: _210  and  _211
REMARK   88  A    between atoms: _210  and  _213
REMARK   89  A    between atoms: _213  and  _214
REMARK   90  A    between atoms: _217  and  _219
REMARK   91  A    between atoms: _219  and  _220
REMARK   92  A    between atoms: _219  and  _222
REMARK   93  A    between atoms: _222  and  _223
REMARK   94  A    between atoms: _225  and  _227
REMARK   95  A    between atoms: _227  and  _228
REMARK   96  A    between atoms: _227  and  _230
REMARK   97  A    between atoms: _230  and  _231
REMARK   98  A    between atoms: _236  and  _238
REMARK   99  A    between atoms: _238  and  _239
REMARK  100  A    between atoms: _238  and  _241
REMARK  101  A    between atoms: _241  and  _242
REMARK  102  A    between atoms: _247  and  _248
REMARK  103  A    between atoms: _250  and  _252
REMARK  104  A    between atoms: _252  and  _253
REMARK  105  A    between atoms: _255  and  _257
REMARK  106  A    between atoms: _257  and  _258
REMARK  107  A    between atoms: _257  and  _260
REMARK  108  A    between atoms: _260  and  _261
REMARK  109  A    between atoms: _261  and  _262
REMARK  110  A    between atoms: _265  and  _267
REMARK  111  A    between atoms: _267  and  _268
REMARK  112  A    between atoms: _267  and  _270
REMARK  113  A    between atoms: _270  and  _271
REMARK  114  A    between atoms: _271  and  _272
REMARK  115  A    between atoms: _272  and  _273
REMARK  116  A    between atoms: _273  and  _274
REMARK  117  A    between atoms: _278  and  _280
REMARK  118  A    between atoms: _280  and  _281
REMARK  119  A    between atoms: _280  and  _283
REMARK  120  A    between atoms: _283  and  _284
REMARK  121  A    between atoms: _287  and  _289
REMARK  122  A    between atoms: _289  and  _290
REMARK  123  A    between atoms: _289  and  _292
REMARK  124  A    between atoms: _292  and  _293
REMARK  125  A    between atoms: _298  and  _300
REMARK  126  A    between atoms: _300  and  _301
REMARK  127  A    between atoms: _300  and  _303
REMARK  128  A    between atoms: _303  and  _304
REMARK  129  A    between atoms: _307  and  _309
REMARK  130  A    between atoms: _309  and  _310
REMARK  131  A    between atoms: _309  and  _312
REMARK  132  A    between atoms: _315  and  _317
REMARK  133  A    between atoms: _317  and  _318
REMARK  134  A    between atoms: _317  and  _320
REMARK  135  A    between atoms: _320  and  _321
REMARK  136  A    between atoms: _323  and  _325
REMARK  137  A    between atoms: _325  and  _326
REMARK  138  A    between atoms: _328  and  _330
REMARK  139  A    between atoms: _330  and  _331
REMARK  140  A    between atoms: _330  and  _333
REMARK  141  A    between atoms: _333  and  _334
REMARK                            x       y       z     vdW  Elec       q    Type
REMARK                         _______ _______ _______ _____ _____    ______ ____
ROOT
ATOM      1  O   HOH     1       6.428   9.030  -7.699  0.00  0.00    +0.000 OA
ENDROOT
TORSDOF 0
REMARK  Name = ../refined-set-2016/2yln/2yln_pocket.pdb
REMARK  141 active torsions:
REMARK  status: ('A' for Active; 'I' for Inactive)
REMARK    1  A    between atoms: _1  and  _3
REMARK    2  A    between atoms: _3  and  _4
REMARK    3  A    between atoms: _3  and  _6
REMARK    4  A    between atoms: _6  and  _7
REMARK    5  A    between atoms: _7  and  _8
REMARK    6  A    between atoms: _11  and  _13
REMARK    7  A    between atoms: _13  and  _14
REMARK    8  A    between atoms: _13  and  _16
REMARK    9  A    between atoms: _16  and  _17
REMARK   10  A    between atoms: _22  and  _23
REMARK   11  A    between atoms: _25  and  _27
REMARK   12  A    between atoms: _27  and  _28
REMARK   13  A    between atoms: _27  and  _30
REMARK   14  A    between atoms: _30  and  _31
REMARK   15  A    between atoms: _37  and  _39
REMARK   16  A    between atoms: _39  and  _40
REMARK   17  A    between atoms: _39  and  _42
REMARK   18  A    between atoms: _42  and  _43
REMARK   19  A    between atoms: _46  and  _48
REMARK   20  A    between atoms: _48  and  _49
REMARK   21  A    between atoms: _48  and  _51
REMARK   22  A    between atoms: _51  and  _52
REMARK   23  A    between atoms: _55  and  _57
REMARK   24  A    between atoms: _57  and  _58
REMARK   25  A    between atoms: _57  and  _60
REMARK   26  A    between atoms: _60  and  _61
REMARK   27  A    between atoms: _71  and  _73
REMARK   28  A    between atoms: _73  and  _74
REMARK   29  A    between atoms: _73  and  _76
REMARK   30  A    between atoms: _76  and  _77
REMARK   31  A    between atoms: _80  and  _82
REMARK   32  A    between atoms: _82  and  _83
REMARK   33  A    between atoms: _82  and  _85
REMARK   34  A    between atoms: _85  and  _86
REMARK   35  A    between atoms: _86  and  _87
REMARK   36  A    between atoms: _89  and  _91
REMARK   37  A    between atoms: _91  and  _92
REMARK   38  A    between atoms: _91  and  _94
REMARK   39  A    between atoms: _94  and  _95
REMARK   40  A    between atoms: _95  and  _96
REMARK   41  A    between atoms: _98  and  _100
REMARK   42  A    between atoms: _100  and  _101
REMARK   43  A    between atoms: _100  and  _103
REMARK   44  A    between atoms: _106  and  _108
REMARK   45  A    between atoms: _108  and  _109
REMARK   46  A    between atoms: _112  and  _114
REMARK   47  A    between atoms: _114  and  _115
REMARK   48  A    between atoms: _114  and  _117
REMARK   49  A    between atoms: _117  and  _118
REMARK   50  A    between atoms: _123  and  _125
REMARK   51  A    between atoms: _125  and  _126
REMARK   52  A    between atoms: _125  and  _128
REMARK   53  A    between atoms: _128  and  _129
REMARK   54  A    between atoms: _129  and  _130
REMARK   55  A    between atoms: _135  and  _137
REMARK   56  A    between atoms: _137  and  _138
REMARK   57  A    between atoms: _137  and  _140
REMARK   58  A    between atoms: _143  and  _145
REMARK   59  A    between atoms: _145  and  _146
REMARK   60  A    between atoms: _148  and  _150
REMARK   61  A    between atoms: _150  and  _151
REMARK   62  A    between atoms: _150  and  _153
REMARK   63  A    between atoms: _153  and  _154
REMARK   64  A    between atoms: _157  and  _159
REMARK   65  A    between atoms: _159  and  _160
REMARK   66  A    between atoms: _159  and  _162
REMARK   67  A    between atoms: _162  and  _163
REMARK   68  A    between atoms: _166  and  _168
REMARK   69  A    between atoms: _168  and  _169
REMARK   70  A    between atoms: _168  and  _171
REMARK   71  A    between atoms: _171  and  _172
REMARK   72  A    between atoms: _174  and  _176
REMARK   73  A    between atoms: _176  and  _177
REMARK   74  A    between atoms: _176  and  _179
REMARK   75  A    between atoms: _179  and  _180
REMARK   76  A    between atoms: _180  and  _181
REMARK   77  A    between atoms: _181  and  _182
REMARK   78  A    between atoms: _191  and  _193
REMARK   79  A    between atoms: _193  and  _194
REMARK   80  A    between atoms: _193  and  _196
REMARK   81  A    between atoms: _196  and  _197
REMARK   82  A    between atoms: _199  and  _201
REMARK   83  A    between atoms: _201  and  _202
REMARK   84  A    between atoms: _201  and  _204
REMARK   85  A    between atoms: _204  and  _205
REMARK   86  A    between atoms: _208  and  _210
REMARK   87  A    between atoms: _210  and  _211
REMARK   88  A    between atoms: _210  and  _213
REMARK   89  A    between atoms: _213  and  _214
REMARK   90  A    between atoms: _217  and  _219
REMARK   91  A    between atoms: _219  and  _220
REMARK   92  A    between atoms: _219  and  _222
REMARK   93  A    between atoms: _222  and  _223
REMARK   94  A    between atoms: _225  and  _227
REMARK   95  A    between atoms: _227  and  _228
REMARK   96  A    between atoms: _227  and  _230
REMARK   97  A    between atoms: _230  and  _231
REMARK   98  A    between atoms: _236  and  _238
REMARK   99  A    between atoms: _238  and  _239
REMARK  100  A    between atoms: _238  and  _241
REMARK  101  A    between atoms: _241  and  _242
REMARK  102  A    between atoms: _247  and  _248
REMARK  103  A    between atoms: _250  and  _252
REMARK  104  A    between atoms: _252  and  _253
REMARK  105  A    between atoms: _255  and  _257
REMARK  106  A    between atoms: _257  and  _258
REMARK  107  A    between atoms: _257  and  _260
REMARK  108  A    between atoms: _260  and  _261
REMARK  109  A    between atoms: _261  and  _262
REMARK  110  A    between atoms: _265  and  _267
REMARK  111  A    between atoms: _267  and  _268
REMARK  112  A    between atoms: _267  and  _270
REMARK  113  A    between atoms: _270  and  _271
REMARK  114  A    between atoms: _271  and  _272
REMARK  115  A    between atoms: _272  and  _273
REMARK  116  A    between atoms: _273  and  _274
REMARK  117  A    between atoms: _278  and  _280
REMARK  118  A    between atoms: _280  and  _281
REMARK  119  A    between atoms: _280  and  _283
REMARK  120  A    between atoms: _283  and  _284
REMARK  121  A    between atoms: _287  and  _289
REMARK  122  A    between atoms: _289  and  _290
REMARK  123  A    between atoms: _289  and  _292
REMARK  124  A    between atoms: _292  and  _293
REMARK  125  A    between atoms: _298  and  _300
REMARK  126  A    between atoms: _300  and  _301
REMARK  127  A    between atoms: _300  and  _303
REMARK  128  A    between atoms: _303  and  _304
REMARK  129  A    between atoms: _307  and  _309
REMARK  130  A    between atoms: _309  and  _310
REMARK  131  A    between atoms: _309  and  _312
REMARK  132  A    between atoms: _315  and  _317
REMARK  133  A    between atoms: _317  and  _318
REMARK  134  A    between atoms: _317  and  _320
REMARK  135  A    between atoms: _320  and  _321
REMARK  136  A    between atoms: _323  and  _325
REMARK  137  A    between atoms: _325  and  _326
REMARK  138  A    between atoms: _328  and  _330
REMARK  139  A    between atoms: _330  and  _331
REMARK  140  A    between atoms: _330  and  _333
REMARK  141  A    between atoms: _333  and  _334
REMARK                            x       y       z     vdW  Elec       q    Type
REMARK                         _______ _______ _______ _____ _____    ______ ____
ROOT
ATOM      1  O   HOH     1      11.160   4.254  -3.844  0.00  0.00    +0.000 OA
ENDROOT
TORSDOF 0
REMARK  Name = ../refined-set-2016/2yln/2yln_pocket.pdb
REMARK  141 active torsions:
REMARK  status: ('A' for Active; 'I' for Inactive)
REMARK    1  A    between atoms: _1  and  _3
REMARK    2  A    between atoms: _3  and  _4
REMARK    3  A    between atoms: _3  and  _6
REMARK    4  A    between atoms: _6  and  _7
REMARK    5  A    between atoms: _7  and  _8
REMARK    6  A    between atoms: _11  and  _13
REMARK    7  A    between atoms: _13  and  _14
REMARK    8  A    between atoms: _13  and  _16
REMARK    9  A    between atoms: _16  and  _17
REMARK   10  A    between atoms: _22  and  _23
REMARK   11  A    between atoms: _25  and  _27
REMARK   12  A    between atoms: _27  and  _28
REMARK   13  A    between atoms: _27  and  _30
REMARK   14  A    between atoms: _30  and  _31
REMARK   15  A    between atoms: _37  and  _39
REMARK   16  A    between atoms: _39  and  _40
REMARK   17  A    between atoms: _39  and  _42
REMARK   18  A    between atoms: _42  and  _43
REMARK   19  A    between atoms: _46  and  _48
REMARK   20  A    between atoms: _48  and  _49
REMARK   21  A    between atoms: _48  and  _51
REMARK   22  A    between atoms: _51  and  _52
REMARK   23  A    between atoms: _55  and  _57
REMARK   24  A    between atoms: _57  and  _58
REMARK   25  A    between atoms: _57  and  _60
REMARK   26  A    between atoms: _60  and  _61
REMARK   27  A    between atoms: _71  and  _73
REMARK   28  A    between atoms: _73  and  _74
REMARK   29  A    between atoms: _73  and  _76
REMARK   30  A    between atoms: _76  and  _77
REMARK   31  A    between atoms: _80  and  _82
REMARK   32  A    between atoms: _82  and  _83
REMARK   33  A    between atoms: _82  and  _85
REMARK   34  A    between atoms: _85  and  _86
REMARK   35  A    between atoms: _86  and  _87
REMARK   36  A    between atoms: _89  and  _91
REMARK   37  A    between atoms: _91  and  _92
REMARK   38  A    between atoms: _91  and  _94
REMARK   39  A    between atoms: _94  and  _95
REMARK   40  A    between atoms: _95  and  _96
REMARK   41  A    between atoms: _98  and  _100
REMARK   42  A    between atoms: _100  and  _101
REMARK   43  A    between atoms: _100  and  _103
REMARK   44  A    between atoms: _106  and  _108
REMARK   45  A    between atoms: _108  and  _109
REMARK   46  A    between atoms: _112  and  _114
REMARK   47  A    between atoms: _114  and  _115
REMARK   48  A    between atoms: _114  and  _117
REMARK   49  A    between atoms: _117  and  _118
REMARK   50  A    between atoms: _123  and  _125
REMARK   51  A    between atoms: _125  and  _126
REMARK   52  A    between atoms: _125  and  _128
REMARK   53  A    between atoms: _128  and  _129
REMARK   54  A    between atoms: _129  and  _130
REMARK   55  A    between atoms: _135  and  _137
REMARK   56  A    between atoms: _137  and  _138
REMARK   57  A    between atoms: _137  and  _140
REMARK   58  A    between atoms: _143  and  _145
REMARK   59  A    between atoms: _145  and  _146
REMARK   60  A    between atoms: _148  and  _150
REMARK   61  A    between atoms: _150  and  _151
REMARK   62  A    between atoms: _150  and  _153
REMARK   63  A    between atoms: _153  and  _154
REMARK   64  A    between atoms: _157  and  _159
REMARK   65  A    between atoms: _159  and  _160
REMARK   66  A    between atoms: _159  and  _162
REMARK   67  A    between atoms: _162  and  _163
REMARK   68  A    between atoms: _166  and  _168
REMARK   69  A    between atoms: _168  and  _169
REMARK   70  A    between atoms: _168  and  _171
REMARK   71  A    between atoms: _171  and  _172
REMARK   72  A    between atoms: _174  and  _176
REMARK   73  A    between atoms: _176  and  _177
REMARK   74  A    between atoms: _176  and  _179
REMARK   75  A    between atoms: _179  and  _180
REMARK   76  A    between atoms: _180  and  _181
REMARK   77  A    between atoms: _181  and  _182
REMARK   78  A    between atoms: _191  and  _193
REMARK   79  A    between atoms: _193  and  _194
REMARK   80  A    between atoms: _193  and  _196
REMARK   81  A    between atoms: _196  and  _197
REMARK   82  A    between atoms: _199  and  _201
REMARK   83  A    between atoms: _201  and  _202
REMARK   84  A    between atoms: _201  and  _204
REMARK   85  A    between atoms: _204  and  _205
REMARK   86  A    between atoms: _208  and  _210
REMARK   87  A    between atoms: _210  and  _211
REMARK   88  A    between atoms: _210  and  _213
REMARK   89  A    between atoms: _213  and  _214
REMARK   90  A    between atoms: _217  and  _219
REMARK   91  A    between atoms: _219  and  _220
REMARK   92  A    between atoms: _219  and  _222
REMARK   93  A    between atoms: _222  and  _223
REMARK   94  A    between atoms: _225  and  _227
REMARK   95  A    between atoms: _227  and  _228
REMARK   96  A    between atoms: _227  and  _230
REMARK   97  A    between atoms: _230  and  _231
REMARK   98  A    between atoms: _236  and  _238
REMARK   99  A    between atoms: _238  and  _239
REMARK  100  A    between atoms: _238  and  _241
REMARK  101  A    between atoms: _241  and  _242
REMARK  102  A    between atoms: _247  and  _248
REMARK  103  A    between atoms: _250  and  _252
REMARK  104  A    between atoms: _252  and  _253
REMARK  105  A    between atoms: _255  and  _257
REMARK  106  A    between atoms: _257  and  _258
REMARK  107  A    between atoms: _257  and  _260
REMARK  108  A    between atoms: _260  and  _261
REMARK  109  A    between atoms: _261  and  _262
REMARK  110  A    between atoms: _265  and  _267
REMARK  111  A    between atoms: _267  and  _268
REMARK  112  A    between atoms: _267  and  _270
REMARK  113  A    between atoms: _270  and  _271
REMARK  114  A    between atoms: _271  and  _272
REMARK  115  A    between atoms: _272  and  _273
REMARK  116  A    between atoms: _273  and  _274
REMARK  117  A    between atoms: _278  and  _280
REMARK  118  A    between atoms: _280  and  _281
REMARK  119  A    between atoms: _280  and  _283
REMARK  120  A    between atoms: _283  and  _284
REMARK  121  A    between atoms: _287  and  _289
REMARK  122  A    between atoms: _289  and  _290
REMARK  123  A    between atoms: _289  and  _292
REMARK  124  A    between atoms: _292  and  _293
REMARK  125  A    between atoms: _298  and  _300
REMARK  126  A    between atoms: _300  and  _301
REMARK  127  A    between atoms: _300  and  _303
REMARK  128  A    between atoms: _303  and  _304
REMARK  129  A    between atoms: _307  and  _309
REMARK  130  A    between atoms: _309  and  _310
REMARK  131  A    between atoms: _309  and  _312
REMARK  132  A    between atoms: _315  and  _317
REMARK  133  A    between atoms: _317  and  _318
REMARK  134  A    between atoms: _317  and  _320
REMARK  135  A    between atoms: _320  and  _321
REMARK  136  A    between atoms: _323  and  _325
REMARK  137  A    between atoms: _325  and  _326
REMARK  138  A    between atoms: _328  and  _330
REMARK  139  A    between atoms: _330  and  _331
REMARK  140  A    between atoms: _330  and  _333
REMARK  141  A    between atoms: _333  and  _334
REMARK                            x       y       z     vdW  Elec       q    Type
REMARK                         _______ _______ _______ _____ _____    ______ ____
ROOT
ATOM      1  O   HOH     1       9.657   7.494  -7.558  0.00  0.00    +0.000 OA
ENDROOT
TORSDOF 0
REMARK  Name = ../refined-set-2016/2yln/2yln_pocket.pdb
REMARK  141 active torsions:
REMARK  status: ('A' for Active; 'I' for Inactive)
REMARK    1  A    between atoms: _1  and  _3
REMARK    2  A    between atoms: _3  and  _4
REMARK    3  A    between atoms: _3  and  _6
REMARK    4  A    between atoms: _6  and  _7
REMARK    5  A    between atoms: _7  and  _8
REMARK    6  A    between atoms: _11  and  _13
REMARK    7  A    between atoms: _13  and  _14
REMARK    8  A    between atoms: _13  and  _16
REMARK    9  A    between atoms: _16  and  _17
REMARK   10  A    between atoms: _22  and  _23
REMARK   11  A    between atoms: _25  and  _27
REMARK   12  A    between atoms: _27  and  _28
REMARK   13  A    between atoms: _27  and  _30
REMARK   14  A    between atoms: _30  and  _31
REMARK   15  A    between atoms: _37  and  _39
REMARK   16  A    between atoms: _39  and  _40
REMARK   17  A    between atoms: _39  and  _42
REMARK   18  A    between atoms: _42  and  _43
REMARK   19  A    between atoms: _46  and  _48
REMARK   20  A    between atoms: _48  and  _49
REMARK   21  A    between atoms: _48  and  _51
REMARK   22  A    between atoms: _51  and  _52
REMARK   23  A    between atoms: _55  and  _57
REMARK   24  A    between atoms: _57  and  _58
REMARK   25  A    between atoms: _57  and  _60
REMARK   26  A    between atoms: _60  and  _61
REMARK   27  A    between atoms: _71  and  _73
REMARK   28  A    between atoms: _73  and  _74
REMARK   29  A    between atoms: _73  and  _76
REMARK   30  A    between atoms: _76  and  _77
REMARK   31  A    between atoms: _80  and  _82
REMARK   32  A    between atoms: _82  and  _83
REMARK   33  A    between atoms: _82  and  _85
REMARK   34  A    between atoms: _85  and  _86
REMARK   35  A    between atoms: _86  and  _87
REMARK   36  A    between atoms: _89  and  _91
REMARK   37  A    between atoms: _91  and  _92
REMARK   38  A    between atoms: _91  and  _94
REMARK   39  A    between atoms: _94  and  _95
REMARK   40  A    between atoms: _95  and  _96
REMARK   41  A    between atoms: _98  and  _100
REMARK   42  A    between atoms: _100  and  _101
REMARK   43  A    between atoms: _100  and  _103
REMARK   44  A    between atoms: _106  and  _108
REMARK   45  A    between atoms: _108  and  _109
REMARK   46  A    between atoms: _112  and  _114
REMARK   47  A    between atoms: _114  and  _115
REMARK   48  A    between atoms: _114  and  _117
REMARK   49  A    between atoms: _117  and  _118
REMARK   50  A    between atoms: _123  and  _125
REMARK   51  A    between atoms: _125  and  _126
REMARK   52  A    between atoms: _125  and  _128
REMARK   53  A    between atoms: _128  and  _129
REMARK   54  A    between atoms: _129  and  _130
REMARK   55  A    between atoms: _135  and  _137
REMARK   56  A    between atoms: _137  and  _138
REMARK   57  A    between atoms: _137  and  _140
REMARK   58  A    between atoms: _143  and  _145
REMARK   59  A    between atoms: _145  and  _146
REMARK   60  A    between atoms: _148  and  _150
REMARK   61  A    between atoms: _150  and  _151
REMARK   62  A    between atoms: _150  and  _153
REMARK   63  A    between atoms: _153  and  _154
REMARK   64  A    between atoms: _157  and  _159
REMARK   65  A    between atoms: _159  and  _160
REMARK   66  A    between atoms: _159  and  _162
REMARK   67  A    between atoms: _162  and  _163
REMARK   68  A    between atoms: _166  and  _168
REMARK   69  A    between atoms: _168  and  _169
REMARK   70  A    between atoms: _168  and  _171
REMARK   71  A    between atoms: _171  and  _172
REMARK   72  A    between atoms: _174  and  _176
REMARK   73  A    between atoms: _176  and  _177
REMARK   74  A    between atoms: _176  and  _179
REMARK   75  A    between atoms: _179  and  _180
REMARK   76  A    between atoms: _180  and  _181
REMARK   77  A    between atoms: _181  and  _182
REMARK   78  A    between atoms: _191  and  _193
REMARK   79  A    between atoms: _193  and  _194
REMARK   80  A    between atoms: _193  and  _196
REMARK   81  A    between atoms: _196  and  _197
REMARK   82  A    between atoms: _199  and  _201
REMARK   83  A    between atoms: _201  and  _202
REMARK   84  A    between atoms: _201  and  _204
REMARK   85  A    between atoms: _204  and  _205
REMARK   86  A    between atoms: _208  and  _210
REMARK   87  A    between atoms: _210  and  _211
REMARK   88  A    between atoms: _210  and  _213
REMARK   89  A    between atoms: _213  and  _214
REMARK   90  A    between atoms: _217  and  _219
REMARK   91  A    between atoms: _219  and  _220
REMARK   92  A    between atoms: _219  and  _222
REMARK   93  A    between atoms: _222  and  _223
REMARK   94  A    between atoms: _225  and  _227
REMARK   95  A    between atoms: _227  and  _228
REMARK   96  A    between atoms: _227  and  _230
REMARK   97  A    between atoms: _230  and  _231
REMARK   98  A    between atoms: _236  and  _238
REMARK   99  A    between atoms: _238  and  _239
REMARK  100  A    between atoms: _238  and  _241
REMARK  101  A    between atoms: _241  and  _242
REMARK  102  A    between atoms: _247  and  _248
REMARK  103  A    between atoms: _250  and  _252
REMARK  104  A    between atoms: _252  and  _253
REMARK  105  A    between atoms: _255  and  _257
REMARK  106  A    between atoms: _257  and  _258
REMARK  107  A    between atoms: _257  and  _260
REMARK  108  A    between atoms: _260  and  _261
REMARK  109  A    between atoms: _261  and  _262
REMARK  110  A    between atoms: _265  and  _267
REMARK  111  A    between atoms: _267  and  _268
REMARK  112  A    between atoms: _267  and  _270
REMARK  113  A    between atoms: _270  and  _271
REMARK  114  A    between atoms: _271  and  _272
REMARK  115  A    between atoms: _272  and  _273
REMARK  116  A    between atoms: _273  and  _274
REMARK  117  A    between atoms: _278  and  _280
REMARK  118  A    between atoms: _280  and  _281
REMARK  119  A    between atoms: _280  and  _283
REMARK  120  A    between atoms: _283  and  _284
REMARK  121  A    between atoms: _287  and  _289
REMARK  122  A    between atoms: _289  and  _290
REMARK  123  A    between atoms: _289  and  _292
REMARK  124  A    between atoms: _292  and  _293
REMARK  125  A    between atoms: _298  and  _300
REMARK  126  A    between atoms: _300  and  _301
REMARK  127  A    between atoms: _300  and  _303
REMARK  128  A    between atoms: _303  and  _304
REMARK  129  A    between atoms: _307  and  _309
REMARK  130  A    between atoms: _309  and  _310
REMARK  131  A    between atoms: _309  and  _312
REMARK  132  A    between atoms: _315  and  _317
REMARK  133  A    between atoms: _317  and  _318
REMARK  134  A    between atoms: _317  and  _320
REMARK  135  A    between atoms: _320  and  _321
REMARK  136  A    between atoms: _323  and  _325
REMARK  137  A    between atoms: _325  and  _326
REMARK  138  A    between atoms: _328  and  _330
REMARK  139  A    between atoms: _330  and  _331
REMARK  140  A    between atoms: _330  and  _333
REMARK  141  A    between atoms: _333  and  _334
REMARK                            x       y       z     vdW  Elec       q    Type
REMARK                         _______ _______ _______ _____ _____    ______ ____
ROOT
ATOM      1  O   HOH     1      11.947   3.795  -6.480  0.00  0.00    +0.000 OA
ENDROOT
TORSDOF 0
