REMARK  Name = ../refined-set-2016/3hky/3hky_pocket.pdb
REMARK  262 active torsions:
REMARK  status: ('A' for Active; 'I' for Inactive)
REMARK    1  A    between atoms: _1  and  _3
REMARK    2  A    between atoms: _3  and  _4
REMARK    3  A    between atoms: _3  and  _6
REMARK    4  A    between atoms: _6  and  _7
REMARK    5  A    between atoms: _7  and  _8
REMARK    6  A    between atoms: _8  and  _9
REMARK    7  A    between atoms: _9  and  _10
REMARK    8  A    between atoms: _14  and  _16
REMARK    9  A    between atoms: _16  and  _17
REMARK   10  A    between atoms: _16  and  _19
REMARK   11  A    between atoms: _19  and  _20
REMARK   12  A    between atoms: _20  and  _21
REMARK   13  A    between atoms: _24  and  _26
REMARK   14  A    between atoms: _26  and  _27
REMARK   15  A    between atoms: _26  and  _29
REMARK   16  A    between atoms: _29  and  _30
REMARK   17  A    between atoms: _30  and  _31
REMARK   18  A    between atoms: _31  and  _32
REMARK   19  A    between atoms: _41  and  _43
REMARK   20  A    between atoms: _43  and  _44
REMARK   21  A    between atoms: _46  and  _48
REMARK   22  A    between atoms: _48  and  _49
REMARK   23  A    between atoms: _48  and  _51
REMARK   24  A    between atoms: _51  and  _52
REMARK   25  A    between atoms: _58  and  _60
REMARK   26  A    between atoms: _60  and  _61
REMARK   27  A    between atoms: _60  and  _63
REMARK   28  A    between atoms: _63  and  _64
REMARK   29  A    between atoms: _69  and  _70
REMARK   30  A    between atoms: _72  and  _74
REMARK   31  A    between atoms: _74  and  _75
REMARK   32  A    between atoms: _74  and  _77
REMARK   33  A    between atoms: _77  and  _78
REMARK   34  A    between atoms: _81  and  _82
REMARK   35  A    between atoms: _87  and  _89
REMARK   36  A    between atoms: _89  and  _90
REMARK   37  A    between atoms: _89  and  _92
REMARK   38  A    between atoms: _92  and  _93
REMARK   39  A    between atoms: _93  and  _94
REMARK   40  A    between atoms: _94  and  _95
REMARK   41  A    between atoms: _95  and  _96
REMARK   42  A    between atoms: _100  and  _102
REMARK   43  A    between atoms: _102  and  _103
REMARK   44  A    between atoms: _102  and  _105
REMARK   45  A    between atoms: _105  and  _106
REMARK   46  A    between atoms: _106  and  _107
REMARK   47  A    between atoms: _112  and  _114
REMARK   48  A    between atoms: _114  and  _115
REMARK   49  A    between atoms: _114  and  _117
REMARK   50  A    between atoms: _117  and  _118
REMARK   51  A    between atoms: _118  and  _119
REMARK   52  A    between atoms: _119  and  _120
REMARK   53  A    between atoms: _129  and  _131
REMARK   54  A    between atoms: _131  and  _132
REMARK   55  A    between atoms: _131  and  _134
REMARK   56  A    between atoms: _137  and  _139
REMARK   57  A    between atoms: _139  and  _140
REMARK   58  A    between atoms: _139  and  _142
REMARK   59  A    between atoms: _142  and  _143
REMARK   60  A    between atoms: _146  and  _148
REMARK   61  A    between atoms: _148  and  _149
REMARK   62  A    between atoms: _148  and  _151
REMARK   63  A    between atoms: _151  and  _152
REMARK   64  A    between atoms: _155  and  _157
REMARK   65  A    between atoms: _157  and  _158
REMARK   66  A    between atoms: _157  and  _160
REMARK   67  A    between atoms: _160  and  _161
REMARK   68  A    between atoms: _163  and  _165
REMARK   69  A    between atoms: _165  and  _166
REMARK   70  A    between atoms: _165  and  _168
REMARK   71  A    between atoms: _168  and  _169
REMARK   72  A    between atoms: _172  and  _174
REMARK   73  A    between atoms: _174  and  _175
REMARK   74  A    between atoms: _174  and  _177
REMARK   75  A    between atoms: _177  and  _178
REMARK   76  A    between atoms: _180  and  _182
REMARK   77  A    between atoms: _182  and  _183
REMARK   78  A    between atoms: _182  and  _185
REMARK   79  A    between atoms: _185  and  _186
REMARK   80  A    between atoms: _191  and  _193
REMARK   81  A    between atoms: _193  and  _194
REMARK   82  A    between atoms: _193  and  _196
REMARK   83  A    between atoms: _196  and  _197
REMARK   84  A    between atoms: _200  and  _202
REMARK   85  A    between atoms: _202  and  _203
REMARK   86  A    between atoms: _202  and  _205
REMARK   87  A    between atoms: _205  and  _206
REMARK   88  A    between atoms: _211  and  _213
REMARK   89  A    between atoms: _213  and  _214
REMARK   90  A    between atoms: _216  and  _218
REMARK   91  A    between atoms: _218  and  _219
REMARK   92  A    between atoms: _218  and  _221
REMARK   93  A    between atoms: _221  and  _222
REMARK   94  A    between atoms: _225  and  _227
REMARK   95  A    between atoms: _227  and  _228
REMARK   96  A    between atoms: _227  and  _230
REMARK   97  A    between atoms: _230  and  _231
REMARK   98  A    between atoms: _234  and  _236
REMARK   99  A    between atoms: _236  and  _237
REMARK  100  A    between atoms: _236  and  _239
REMARK  101  A    between atoms: _239  and  _240
REMARK  102  A    between atoms: _242  and  _244
REMARK  103  A    between atoms: _244  and  _245
REMARK  104  A    between atoms: _244  and  _247
REMARK  105  A    between atoms: _249  and  _251
REMARK  106  A    between atoms: _251  and  _252
REMARK  107  A    between atoms: _251  and  _254
REMARK  108  A    between atoms: _254  and  _255
REMARK  109  A    between atoms: _257  and  _259
REMARK  110  A    between atoms: _259  and  _260
REMARK  111  A    between atoms: _259  and  _262
REMARK  112  A    between atoms: _262  and  _263
REMARK  113  A    between atoms: _265  and  _267
REMARK  114  A    between atoms: _267  and  _268
REMARK  115  A    between atoms: _267  and  _270
REMARK  116  A    between atoms: _270  and  _271
REMARK  117  A    between atoms: _276  and  _278
REMARK  118  A    between atoms: _278  and  _279
REMARK  119  A    between atoms: _278  and  _281
REMARK  120  A    between atoms: _281  and  _282
REMARK  121  A    between atoms: _287  and  _288
REMARK  122  A    between atoms: _290  and  _292
REMARK  123  A    between atoms: _292  and  _293
REMARK  124  A    between atoms: _292  and  _295
REMARK  125  A    between atoms: _295  and  _296
REMARK  126  A    between atoms: _299  and  _301
REMARK  127  A    between atoms: _301  and  _302
REMARK  128  A    between atoms: _301  and  _304
REMARK  129  A    between atoms: _304  and  _305
REMARK  130  A    between atoms: _308  and  _310
REMARK  131  A    between atoms: _310  and  _311
REMARK  132  A    between atoms: _310  and  _313
REMARK  133  A    between atoms: _313  and  _314
REMARK  134  A    between atoms: _314  and  _315
REMARK  135  A    between atoms: _315  and  _316
REMARK  136  A    between atoms: _326  and  _327
REMARK  137  A    between atoms: _332  and  _334
REMARK  138  A    between atoms: _334  and  _335
REMARK  139  A    between atoms: _334  and  _337
REMARK  140  A    between atoms: _337  and  _338
REMARK  141  A    between atoms: _338  and  _339
REMARK  142  A    between atoms: _339  and  _340
REMARK  143  A    between atoms: _349  and  _351
REMARK  144  A    between atoms: _351  and  _352
REMARK  145  A    between atoms: _351  and  _354
REMARK  146  A    between atoms: _354  and  _355
REMARK  147  A    between atoms: _355  and  _356
REMARK  148  A    between atoms: _359  and  _361
REMARK  149  A    between atoms: _361  and  _362
REMARK  150  A    between atoms: _361  and  _364
REMARK  151  A    between atoms: _364  and  _365
REMARK  152  A    between atoms: _368  and  _370
REMARK  153  A    between atoms: _370  and  _371
REMARK  154  A    between atoms: _370  and  _373
REMARK  155  A    between atoms: _373  and  _374
REMARK  156  A    between atoms: _379  and  _381
REMARK  157  A    between atoms: _381  and  _382
REMARK  158  A    between atoms: _381  and  _384
REMARK  159  A    between atoms: _384  and  _385
REMARK  160  A    between atoms: _387  and  _389
REMARK  161  A    between atoms: _389  and  _390
REMARK  162  A    between atoms: _389  and  _392
REMARK  163  A    between atoms: _392  and  _393
REMARK  164  A    between atoms: _403  and  _405
REMARK  165  A    between atoms: _405  and  _406
REMARK  166  A    between atoms: _405  and  _408
REMARK  167  A    between atoms: _408  and  _409
REMARK  168  A    between atoms: _412  and  _414
REMARK  169  A    between atoms: _414  and  _415
REMARK  170  A    between atoms: _417  and  _419
REMARK  171  A    between atoms: _419  and  _420
REMARK  172  A    between atoms: _419  and  _422
REMARK  173  A    between atoms: _422  and  _423
REMARK  174  A    between atoms: _428  and  _430
REMARK  175  A    between atoms: _430  and  _431
REMARK  176  A    between atoms: _430  and  _433
REMARK  177  A    between atoms: _433  and  _434
REMARK  178  A    between atoms: _437  and  _439
REMARK  179  A    between atoms: _439  and  _440
REMARK  180  A    between atoms: _439  and  _442
REMARK  181  A    between atoms: _442  and  _443
REMARK  182  A    between atoms: _446  and  _448
REMARK  183  A    between atoms: _448  and  _449
REMARK  184  A    between atoms: _448  and  _451
REMARK  185  A    between atoms: _451  and  _452
REMARK  186  A    between atoms: _452  and  _453
REMARK  187  A    between atoms: _455  and  _457
REMARK  188  A    between atoms: _457  and  _458
REMARK  189  A    between atoms: _457  and  _460
REMARK  190  A    between atoms: _460  and  _461
REMARK  191  A    between atoms: _466  and  _467
REMARK  192  A    between atoms: _469  and  _471
REMARK  193  A    between atoms: _471  and  _472
REMARK  194  A    between atoms: _476  and  _477
REMARK  195  A    between atoms: _482  and  _484
REMARK  196  A    between atoms: _484  and  _485
REMARK  197  A    between atoms: _484  and  _487
REMARK  198  A    between atoms: _487  and  _488
REMARK  199  A    between atoms: _491  and  _493
REMARK  200  A    between atoms: _493  and  _494
REMARK  201  A    between atoms: _493  and  _496
REMARK  202  A    between atoms: _496  and  _497
REMARK  203  A    between atoms: _507  and  _509
REMARK  204  A    between atoms: _509  and  _510
REMARK  205  A    between atoms: _509  and  _512
REMARK  206  A    between atoms: _514  and  _516
REMARK  207  A    between atoms: _516  and  _517
REMARK  208  A    between atoms: _516  and  _519
REMARK  209  A    between atoms: _519  and  _520
REMARK  210  A    between atoms: _520  and  _521
REMARK  211  A    between atoms: _526  and  _528
REMARK  212  A    between atoms: _528  and  _529
REMARK  213  A    between atoms: _528  and  _531
REMARK  214  A    between atoms: _531  and  _532
REMARK  215  A    between atoms: _535  and  _537
REMARK  216  A    between atoms: _537  and  _538
REMARK  217  A    between atoms: _537  and  _540
REMARK  218  A    between atoms: _540  and  _541
REMARK  219  A    between atoms: _546  and  _547
REMARK  220  A    between atoms: _549  and  _551
REMARK  221  A    between atoms: _551  and  _552
REMARK  222  A    between atoms: _554  and  _556
REMARK  223  A    between atoms: _556  and  _557
REMARK  224  A    between atoms: _560  and  _562
REMARK  225  A    between atoms: _562  and  _563
REMARK  226  A    between atoms: _562  and  _565
REMARK  227  A    between atoms: _567  and  _569
REMARK  228  A    between atoms: _569  and  _570
REMARK  229  A    between atoms: _569  and  _572
REMARK  230  A    between atoms: _572  and  _573
REMARK  231  A    between atoms: _578  and  _579
REMARK  232  A    between atoms: _581  and  _583
REMARK  233  A    between atoms: _583  and  _584
REMARK  234  A    between atoms: _583  and  _586
REMARK  235  A    between atoms: _586  and  _587
REMARK  236  A    between atoms: _590  and  _592
REMARK  237  A    between atoms: _592  and  _593
REMARK  238  A    between atoms: _592  and  _595
REMARK  239  A    between atoms: _595  and  _596
REMARK  240  A    between atoms: _601  and  _603
REMARK  241  A    between atoms: _603  and  _604
REMARK  242  A    between atoms: _603  and  _606
REMARK  243  A    between atoms: _606  and  _607
REMARK  244  A    between atoms: _617  and  _619
REMARK  245  A    between atoms: _619  and  _620
REMARK  246  A    between atoms: _619  and  _622
REMARK  247  A    between atoms: _622  and  _623
REMARK  248  A    between atoms: _629  and  _631
REMARK  249  A    between atoms: _631  and  _632
REMARK  250  A    between atoms: _635  and  _637
REMARK  251  A    between atoms: _637  and  _638
REMARK  252  A    between atoms: _640  and  _642
REMARK  253  A    between atoms: _642  and  _643
REMARK  254  A    between atoms: _642  and  _645
REMARK  255  A    between atoms: _645  and  _646
REMARK  256  A    between atoms: _651  and  _652
REMARK  257  A    between atoms: _654  and  _656
REMARK  258  A    between atoms: _656  and  _657
REMARK  259  A    between atoms: _656  and  _659
REMARK  260  A    between atoms: _659  and  _660
REMARK  261  A    between atoms: _662  and  _664
REMARK  262  A    between atoms: _664  and  _665
REMARK                            x       y       z     vdW  Elec       q    Type
REMARK                         _______ _______ _______ _____ _____    ______ ____
ROOT
ATOM      1  CG  LYS A   1     -22.867   3.309  20.635  0.00  0.00    -0.000 C 
ENDROOT
BRANCH   1   2
ATOM      2  CB  LYS A   1     -21.622   4.072  20.234  0.00  0.00    +0.025 C 
BRANCH   2   3
ATOM      3  CA  LYS A   1     -21.881   5.484  19.684  0.00  0.00    +0.133 C 
BRANCH   3   4
ATOM      4  N   LYS A   1     -20.923   5.770  18.630  0.00  0.00    -0.239 NA
ATOM      5  H   LYS A   1     -20.011   5.271  18.645  0.00  0.00    +0.142 HD
ENDBRANCH   3   4
BRANCH   3   6
ATOM      6  C   LYS A   1     -21.694   6.512  20.785  0.00  0.00    +0.224 C 
ATOM      7  O   LYS A   1     -20.554   6.801  21.165  0.00  0.00    -0.287 OA
ENDBRANCH   3   6
ENDBRANCH   2   3
ENDBRANCH   1   2
BRANCH   1   8
ATOM      8  CD  LYS A   1     -22.533   2.035  21.449  0.00  0.00    -0.024 C 
BRANCH   8   9
ATOM      9  CE  LYS A   1     -21.992   0.900  20.589  0.00  0.00    -0.086 C 
BRANCH   9  10
ATOM     10  NZ  LYS A   1     -22.053  -0.410  21.284  0.00  0.00    +0.380 N 
ATOM     11  HZ1 LYS A   1     -21.486  -0.366  22.155  0.00  0.00    -0.089 HD
ATOM     12  HZ2 LYS A   1     -23.041  -0.629  21.523  0.00  0.00    -0.089 HD
ATOM     13  HZ3 LYS A   1     -21.674  -1.150  20.659  0.00  0.00    -0.089 HD
ENDBRANCH   9  10
ENDBRANCH   8   9
ENDBRANCH   1   8
TORSDOF 7
REMARK  Name = ../refined-set-2016/3hky/3hky_pocket.pdb
REMARK  262 active torsions:
REMARK  status: ('A' for Active; 'I' for Inactive)
REMARK    1  A    between atoms: _1  and  _3
REMARK    2  A    between atoms: _3  and  _4
REMARK    3  A    between atoms: _3  and  _6
REMARK    4  A    between atoms: _6  and  _7
REMARK    5  A    between atoms: _7  and  _8
REMARK    6  A    between atoms: _8  and  _9
REMARK    7  A    between atoms: _9  and  _10
REMARK    8  A    between atoms: _14  and  _16
REMARK    9  A    between atoms: _16  and  _17
REMARK   10  A    between atoms: _16  and  _19
REMARK   11  A    between atoms: _19  and  _20
REMARK   12  A    between atoms: _20  and  _21
REMARK   13  A    between atoms: _24  and  _26
REMARK   14  A    between atoms: _26  and  _27
REMARK   15  A    between atoms: _26  and  _29
REMARK   16  A    between atoms: _29  and  _30
REMARK   17  A    between atoms: _30  and  _31
REMARK   18  A    between atoms: _31  and  _32
REMARK   19  A    between atoms: _41  and  _43
REMARK   20  A    between atoms: _43  and  _44
REMARK   21  A    between atoms: _46  and  _48
REMARK   22  A    between atoms: _48  and  _49
REMARK   23  A    between atoms: _48  and  _51
REMARK   24  A    between atoms: _51  and  _52
REMARK   25  A    between atoms: _58  and  _60
REMARK   26  A    between atoms: _60  and  _61
REMARK   27  A    between atoms: _60  and  _63
REMARK   28  A    between atoms: _63  and  _64
REMARK   29  A    between atoms: _69  and  _70
REMARK   30  A    between atoms: _72  and  _74
REMARK   31  A    between atoms: _74  and  _75
REMARK   32  A    between atoms: _74  and  _77
REMARK   33  A    between atoms: _77  and  _78
REMARK   34  A    between atoms: _81  and  _82
REMARK   35  A    between atoms: _87  and  _89
REMARK   36  A    between atoms: _89  and  _90
REMARK   37  A    between atoms: _89  and  _92
REMARK   38  A    between atoms: _92  and  _93
REMARK   39  A    between atoms: _93  and  _94
REMARK   40  A    between atoms: _94  and  _95
REMARK   41  A    between atoms: _95  and  _96
REMARK   42  A    between atoms: _100  and  _102
REMARK   43  A    between atoms: _102  and  _103
REMARK   44  A    between atoms: _102  and  _105
REMARK   45  A    between atoms: _105  and  _106
REMARK   46  A    between atoms: _106  and  _107
REMARK   47  A    between atoms: _112  and  _114
REMARK   48  A    between atoms: _114  and  _115
REMARK   49  A    between atoms: _114  and  _117
REMARK   50  A    between atoms: _117  and  _118
REMARK   51  A    between atoms: _118  and  _119
REMARK   52  A    between atoms: _119  and  _120
REMARK   53  A    between atoms: _129  and  _131
REMARK   54  A    between atoms: _131  and  _132
REMARK   55  A    between atoms: _131  and  _134
REMARK   56  A    between atoms: _137  and  _139
REMARK   57  A    between atoms: _139  and  _140
REMARK   58  A    between atoms: _139  and  _142
REMARK   59  A    between atoms: _142  and  _143
REMARK   60  A    between atoms: _146  and  _148
REMARK   61  A    between atoms: _148  and  _149
REMARK   62  A    between atoms: _148  and  _151
REMARK   63  A    between atoms: _151  and  _152
REMARK   64  A    between atoms: _155  and  _157
REMARK   65  A    between atoms: _157  and  _158
REMARK   66  A    between atoms: _157  and  _160
REMARK   67  A    between atoms: _160  and  _161
REMARK   68  A    between atoms: _163  and  _165
REMARK   69  A    between atoms: _165  and  _166
REMARK   70  A    between atoms: _165  and  _168
REMARK   71  A    between atoms: _168  and  _169
REMARK   72  A    between atoms: _172  and  _174
REMARK   73  A    between atoms: _174  and  _175
REMARK   74  A    between atoms: _174  and  _177
REMARK   75  A    between atoms: _177  and  _178
REMARK   76  A    between atoms: _180  and  _182
REMARK   77  A    between atoms: _182  and  _183
REMARK   78  A    between atoms: _182  and  _185
REMARK   79  A    between atoms: _185  and  _186
REMARK   80  A    between atoms: _191  and  _193
REMARK   81  A    between atoms: _193  and  _194
REMARK   82  A    between atoms: _193  and  _196
REMARK   83  A    between atoms: _196  and  _197
REMARK   84  A    between atoms: _200  and  _202
REMARK   85  A    between atoms: _202  and  _203
REMARK   86  A    between atoms: _202  and  _205
REMARK   87  A    between atoms: _205  and  _206
REMARK   88  A    between atoms: _211  and  _213
REMARK   89  A    between atoms: _213  and  _214
REMARK   90  A    between atoms: _216  and  _218
REMARK   91  A    between atoms: _218  and  _219
REMARK   92  A    between atoms: _218  and  _221
REMARK   93  A    between atoms: _221  and  _222
REMARK   94  A    between atoms: _225  and  _227
REMARK   95  A    between atoms: _227  and  _228
REMARK   96  A    between atoms: _227  and  _230
REMARK   97  A    between atoms: _230  and  _231
REMARK   98  A    between atoms: _234  and  _236
REMARK   99  A    between atoms: _236  and  _237
REMARK  100  A    between atoms: _236  and  _239
REMARK  101  A    between atoms: _239  and  _240
REMARK  102  A    between atoms: _242  and  _244
REMARK  103  A    between atoms: _244  and  _245
REMARK  104  A    between atoms: _244  and  _247
REMARK  105  A    between atoms: _249  and  _251
REMARK  106  A    between atoms: _251  and  _252
REMARK  107  A    between atoms: _251  and  _254
REMARK  108  A    between atoms: _254  and  _255
REMARK  109  A    between atoms: _257  and  _259
REMARK  110  A    between atoms: _259  and  _260
REMARK  111  A    between atoms: _259  and  _262
REMARK  112  A    between atoms: _262  and  _263
REMARK  113  A    between atoms: _265  and  _267
REMARK  114  A    between atoms: _267  and  _268
REMARK  115  A    between atoms: _267  and  _270
REMARK  116  A    between atoms: _270  and  _271
REMARK  117  A    between atoms: _276  and  _278
REMARK  118  A    between atoms: _278  and  _279
REMARK  119  A    between atoms: _278  and  _281
REMARK  120  A    between atoms: _281  and  _282
REMARK  121  A    between atoms: _287  and  _288
REMARK  122  A    between atoms: _290  and  _292
REMARK  123  A    between atoms: _292  and  _293
REMARK  124  A    between atoms: _292  and  _295
REMARK  125  A    between atoms: _295  and  _296
REMARK  126  A    between atoms: _299  and  _301
REMARK  127  A    between atoms: _301  and  _302
REMARK  128  A    between atoms: _301  and  _304
REMARK  129  A    between atoms: _304  and  _305
REMARK  130  A    between atoms: _308  and  _310
REMARK  131  A    between atoms: _310  and  _311
REMARK  132  A    between atoms: _310  and  _313
REMARK  133  A    between atoms: _313  and  _314
REMARK  134  A    between atoms: _314  and  _315
REMARK  135  A    between atoms: _315  and  _316
REMARK  136  A    between atoms: _326  and  _327
REMARK  137  A    between atoms: _332  and  _334
REMARK  138  A    between atoms: _334  and  _335
REMARK  139  A    between atoms: _334  and  _337
REMARK  140  A    between atoms: _337  and  _338
REMARK  141  A    between atoms: _338  and  _339
REMARK  142  A    between atoms: _339  and  _340
REMARK  143  A    between atoms: _349  and  _351
REMARK  144  A    between atoms: _351  and  _352
REMARK  145  A    between atoms: _351  and  _354
REMARK  146  A    between atoms: _354  and  _355
REMARK  147  A    between atoms: _355  and  _356
REMARK  148  A    between atoms: _359  and  _361
REMARK  149  A    between atoms: _361  and  _362
REMARK  150  A    between atoms: _361  and  _364
REMARK  151  A    between atoms: _364  and  _365
REMARK  152  A    between atoms: _368  and  _370
REMARK  153  A    between atoms: _370  and  _371
REMARK  154  A    between atoms: _370  and  _373
REMARK  155  A    between atoms: _373  and  _374
REMARK  156  A    between atoms: _379  and  _381
REMARK  157  A    between atoms: _381  and  _382
REMARK  158  A    between atoms: _381  and  _384
REMARK  159  A    between atoms: _384  and  _385
REMARK  160  A    between atoms: _387  and  _389
REMARK  161  A    between atoms: _389  and  _390
REMARK  162  A    between atoms: _389  and  _392
REMARK  163  A    between atoms: _392  and  _393
REMARK  164  A    between atoms: _403  and  _405
REMARK  165  A    between atoms: _405  and  _406
REMARK  166  A    between atoms: _405  and  _408
REMARK  167  A    between atoms: _408  and  _409
REMARK  168  A    between atoms: _412  and  _414
REMARK  169  A    between atoms: _414  and  _415
REMARK  170  A    between atoms: _417  and  _419
REMARK  171  A    between atoms: _419  and  _420
REMARK  172  A    between atoms: _419  and  _422
REMARK  173  A    between atoms: _422  and  _423
REMARK  174  A    between atoms: _428  and  _430
REMARK  175  A    between atoms: _430  and  _431
REMARK  176  A    between atoms: _430  and  _433
REMARK  177  A    between atoms: _433  and  _434
REMARK  178  A    between atoms: _437  and  _439
REMARK  179  A    between atoms: _439  and  _440
REMARK  180  A    between atoms: _439  and  _442
REMARK  181  A    between atoms: _442  and  _443
REMARK  182  A    between atoms: _446  and  _448
REMARK  183  A    between atoms: _448  and  _449
REMARK  184  A    between atoms: _448  and  _451
REMARK  185  A    between atoms: _451  and  _452
REMARK  186  A    between atoms: _452  and  _453
REMARK  187  A    between atoms: _455  and  _457
REMARK  188  A    between atoms: _457  and  _458
REMARK  189  A    between atoms: _457  and  _460
REMARK  190  A    between atoms: _460  and  _461
REMARK  191  A    between atoms: _466  and  _467
REMARK  192  A    between atoms: _469  and  _471
REMARK  193  A    between atoms: _471  and  _472
REMARK  194  A    between atoms: _476  and  _477
REMARK  195  A    between atoms: _482  and  _484
REMARK  196  A    between atoms: _484  and  _485
REMARK  197  A    between atoms: _484  and  _487
REMARK  198  A    between atoms: _487  and  _488
REMARK  199  A    between atoms: _491  and  _493
REMARK  200  A    between atoms: _493  and  _494
REMARK  201  A    between atoms: _493  and  _496
REMARK  202  A    between atoms: _496  and  _497
REMARK  203  A    between atoms: _507  and  _509
REMARK  204  A    between atoms: _509  and  _510
REMARK  205  A    between atoms: _509  and  _512
REMARK  206  A    between atoms: _514  and  _516
REMARK  207  A    between atoms: _516  and  _517
REMARK  208  A    between atoms: _516  and  _519
REMARK  209  A    between atoms: _519  and  _520
REMARK  210  A    between atoms: _520  and  _521
REMARK  211  A    between atoms: _526  and  _528
REMARK  212  A    between atoms: _528  and  _529
REMARK  213  A    between atoms: _528  and  _531
REMARK  214  A    between atoms: _531  and  _532
REMARK  215  A    between atoms: _535  and  _537
REMARK  216  A    between atoms: _537  and  _538
REMARK  217  A    between atoms: _537  and  _540
REMARK  218  A    between atoms: _540  and  _541
REMARK  219  A    between atoms: _546  and  _547
REMARK  220  A    between atoms: _549  and  _551
REMARK  221  A    between atoms: _551  and  _552
REMARK  222  A    between atoms: _554  and  _556
REMARK  223  A    between atoms: _556  and  _557
REMARK  224  A    between atoms: _560  and  _562
REMARK  225  A    between atoms: _562  and  _563
REMARK  226  A    between atoms: _562  and  _565
REMARK  227  A    between atoms: _567  and  _569
REMARK  228  A    between atoms: _569  and  _570
REMARK  229  A    between atoms: _569  and  _572
REMARK  230  A    between atoms: _572  and  _573
REMARK  231  A    between atoms: _578  and  _579
REMARK  232  A    between atoms: _581  and  _583
REMARK  233  A    between atoms: _583  and  _584
REMARK  234  A    between atoms: _583  and  _586
REMARK  235  A    between atoms: _586  and  _587
REMARK  236  A    between atoms: _590  and  _592
REMARK  237  A    between atoms: _592  and  _593
REMARK  238  A    between atoms: _592  and  _595
REMARK  239  A    between atoms: _595  and  _596
REMARK  240  A    between atoms: _601  and  _603
REMARK  241  A    between atoms: _603  and  _604
REMARK  242  A    between atoms: _603  and  _606
REMARK  243  A    between atoms: _606  and  _607
REMARK  244  A    between atoms: _617  and  _619
REMARK  245  A    between atoms: _619  and  _620
REMARK  246  A    between atoms: _619  and  _622
REMARK  247  A    between atoms: _622  and  _623
REMARK  248  A    between atoms: _629  and  _631
REMARK  249  A    between atoms: _631  and  _632
REMARK  250  A    between atoms: _635  and  _637
REMARK  251  A    between atoms: _637  and  _638
REMARK  252  A    between atoms: _640  and  _642
REMARK  253  A    between atoms: _642  and  _643
REMARK  254  A    between atoms: _642  and  _645
REMARK  255  A    between atoms: _645  and  _646
REMARK  256  A    between atoms: _651  and  _652
REMARK  257  A    between atoms: _654  and  _656
REMARK  258  A    between atoms: _656  and  _657
REMARK  259  A    between atoms: _656  and  _659
REMARK  260  A    between atoms: _659  and  _660
REMARK  261  A    between atoms: _662  and  _664
REMARK  262  A    between atoms: _664  and  _665
REMARK                            x       y       z     vdW  Elec       q    Type
REMARK                         _______ _______ _______ _____ _____    ______ ____
ROOT
ATOM      1  CA  GLU A   1     -22.052   6.382  25.810  0.00  0.00    +0.134 C 
ENDROOT
BRANCH   1   2
ATOM      2  N   GLU A   1     -21.932   7.095  24.537  0.00  0.00    -0.239 NA
ATOM      3  H   GLU A   1     -21.036   7.573  24.312  0.00  0.00    +0.142 HD
ENDBRANCH   1   2
BRANCH   1   4
ATOM      4  C   GLU A   1     -21.394   7.169  26.936  0.00  0.00    +0.224 C 
ATOM      5  O   GLU A   1     -20.417   7.899  26.730  0.00  0.00    -0.287 OA
ENDBRANCH   1   4
BRANCH   1   6
ATOM      6  CB  GLU A   1     -21.407   4.991  25.741  0.00  0.00    +0.037 C 
BRANCH   6   7
ATOM      7  CG  GLU A   1     -22.054   4.048  24.732  0.00  0.00    +0.116 C 
BRANCH   7   8
ATOM      8  CD  GLU A   1     -21.324   2.727  24.632  0.00  0.00    +0.365 C 
ATOM      9  OE2 GLU A   1     -21.953   1.690  24.945  0.00  0.00    -0.246 OA
ATOM     10  OE1 GLU A   1     -20.126   2.735  24.244  0.00  0.00    -0.246 OA
ENDBRANCH   7   8
ENDBRANCH   6   7
ENDBRANCH   1   6
TORSDOF 5
REMARK  Name = ../refined-set-2016/3hky/3hky_pocket.pdb
REMARK  262 active torsions:
REMARK  status: ('A' for Active; 'I' for Inactive)
REMARK    1  A    between atoms: _1  and  _3
REMARK    2  A    between atoms: _3  and  _4
REMARK    3  A    between atoms: _3  and  _6
REMARK    4  A    between atoms: _6  and  _7
REMARK    5  A    between atoms: _7  and  _8
REMARK    6  A    between atoms: _8  and  _9
REMARK    7  A    between atoms: _9  and  _10
REMARK    8  A    between atoms: _14  and  _16
REMARK    9  A    between atoms: _16  and  _17
REMARK   10  A    between atoms: _16  and  _19
REMARK   11  A    between atoms: _19  and  _20
REMARK   12  A    between atoms: _20  and  _21
REMARK   13  A    between atoms: _24  and  _26
REMARK   14  A    between atoms: _26  and  _27
REMARK   15  A    between atoms: _26  and  _29
REMARK   16  A    between atoms: _29  and  _30
REMARK   17  A    between atoms: _30  and  _31
REMARK   18  A    between atoms: _31  and  _32
REMARK   19  A    between atoms: _41  and  _43
REMARK   20  A    between atoms: _43  and  _44
REMARK   21  A    between atoms: _46  and  _48
REMARK   22  A    between atoms: _48  and  _49
REMARK   23  A    between atoms: _48  and  _51
REMARK   24  A    between atoms: _51  and  _52
REMARK   25  A    between atoms: _58  and  _60
REMARK   26  A    between atoms: _60  and  _61
REMARK   27  A    between atoms: _60  and  _63
REMARK   28  A    between atoms: _63  and  _64
REMARK   29  A    between atoms: _69  and  _70
REMARK   30  A    between atoms: _72  and  _74
REMARK   31  A    between atoms: _74  and  _75
REMARK   32  A    between atoms: _74  and  _77
REMARK   33  A    between atoms: _77  and  _78
REMARK   34  A    between atoms: _81  and  _82
REMARK   35  A    between atoms: _87  and  _89
REMARK   36  A    between atoms: _89  and  _90
REMARK   37  A    between atoms: _89  and  _92
REMARK   38  A    between atoms: _92  and  _93
REMARK   39  A    between atoms: _93  and  _94
REMARK   40  A    between atoms: _94  and  _95
REMARK   41  A    between atoms: _95  and  _96
REMARK   42  A    between atoms: _100  and  _102
REMARK   43  A    between atoms: _102  and  _103
REMARK   44  A    between atoms: _102  and  _105
REMARK   45  A    between atoms: _105  and  _106
REMARK   46  A    between atoms: _106  and  _107
REMARK   47  A    between atoms: _112  and  _114
REMARK   48  A    between atoms: _114  and  _115
REMARK   49  A    between atoms: _114  and  _117
REMARK   50  A    between atoms: _117  and  _118
REMARK   51  A    between atoms: _118  and  _119
REMARK   52  A    between atoms: _119  and  _120
REMARK   53  A    between atoms: _129  and  _131
REMARK   54  A    between atoms: _131  and  _132
REMARK   55  A    between atoms: _131  and  _134
REMARK   56  A    between atoms: _137  and  _139
REMARK   57  A    between atoms: _139  and  _140
REMARK   58  A    between atoms: _139  and  _142
REMARK   59  A    between atoms: _142  and  _143
REMARK   60  A    between atoms: _146  and  _148
REMARK   61  A    between atoms: _148  and  _149
REMARK   62  A    between atoms: _148  and  _151
REMARK   63  A    between atoms: _151  and  _152
REMARK   64  A    between atoms: _155  and  _157
REMARK   65  A    between atoms: _157  and  _158
REMARK   66  A    between atoms: _157  and  _160
REMARK   67  A    between atoms: _160  and  _161
REMARK   68  A    between atoms: _163  and  _165
REMARK   69  A    between atoms: _165  and  _166
REMARK   70  A    between atoms: _165  and  _168
REMARK   71  A    between atoms: _168  and  _169
REMARK   72  A    between atoms: _172  and  _174
REMARK   73  A    between atoms: _174  and  _175
REMARK   74  A    between atoms: _174  and  _177
REMARK   75  A    between atoms: _177  and  _178
REMARK   76  A    between atoms: _180  and  _182
REMARK   77  A    between atoms: _182  and  _183
REMARK   78  A    between atoms: _182  and  _185
REMARK   79  A    between atoms: _185  and  _186
REMARK   80  A    between atoms: _191  and  _193
REMARK   81  A    between atoms: _193  and  _194
REMARK   82  A    between atoms: _193  and  _196
REMARK   83  A    between atoms: _196  and  _197
REMARK   84  A    between atoms: _200  and  _202
REMARK   85  A    between atoms: _202  and  _203
REMARK   86  A    between atoms: _202  and  _205
REMARK   87  A    between atoms: _205  and  _206
REMARK   88  A    between atoms: _211  and  _213
REMARK   89  A    between atoms: _213  and  _214
REMARK   90  A    between atoms: _216  and  _218
REMARK   91  A    between atoms: _218  and  _219
REMARK   92  A    between atoms: _218  and  _221
REMARK   93  A    between atoms: _221  and  _222
REMARK   94  A    between atoms: _225  and  _227
REMARK   95  A    between atoms: _227  and  _228
REMARK   96  A    between atoms: _227  and  _230
REMARK   97  A    between atoms: _230  and  _231
REMARK   98  A    between atoms: _234  and  _236
REMARK   99  A    between atoms: _236  and  _237
REMARK  100  A    between atoms: _236  and  _239
REMARK  101  A    between atoms: _239  and  _240
REMARK  102  A    between atoms: _242  and  _244
REMARK  103  A    between atoms: _244  and  _245
REMARK  104  A    between atoms: _244  and  _247
REMARK  105  A    between atoms: _249  and  _251
REMARK  106  A    between atoms: _251  and  _252
REMARK  107  A    between atoms: _251  and  _254
REMARK  108  A    between atoms: _254  and  _255
REMARK  109  A    between atoms: _257  and  _259
REMARK  110  A    between atoms: _259  and  _260
REMARK  111  A    between atoms: _259  and  _262
REMARK  112  A    between atoms: _262  and  _263
REMARK  113  A    between atoms: _265  and  _267
REMARK  114  A    between atoms: _267  and  _268
REMARK  115  A    between atoms: _267  and  _270
REMARK  116  A    between atoms: _270  and  _271
REMARK  117  A    between atoms: _276  and  _278
REMARK  118  A    between atoms: _278  and  _279
REMARK  119  A    between atoms: _278  and  _281
REMARK  120  A    between atoms: _281  and  _282
REMARK  121  A    between atoms: _287  and  _288
REMARK  122  A    between atoms: _290  and  _292
REMARK  123  A    between atoms: _292  and  _293
REMARK  124  A    between atoms: _292  and  _295
REMARK  125  A    between atoms: _295  and  _296
REMARK  126  A    between atoms: _299  and  _301
REMARK  127  A    between atoms: _301  and  _302
REMARK  128  A    between atoms: _301  and  _304
REMARK  129  A    between atoms: _304  and  _305
REMARK  130  A    between atoms: _308  and  _310
REMARK  131  A    between atoms: _310  and  _311
REMARK  132  A    between atoms: _310  and  _313
REMARK  133  A    between atoms: _313  and  _314
REMARK  134  A    between atoms: _314  and  _315
REMARK  135  A    between atoms: _315  and  _316
REMARK  136  A    between atoms: _326  and  _327
REMARK  137  A    between atoms: _332  and  _334
REMARK  138  A    between atoms: _334  and  _335
REMARK  139  A    between atoms: _334  and  _337
REMARK  140  A    between atoms: _337  and  _338
REMARK  141  A    between atoms: _338  and  _339
REMARK  142  A    between atoms: _339  and  _340
REMARK  143  A    between atoms: _349  and  _351
REMARK  144  A    between atoms: _351  and  _352
REMARK  145  A    between atoms: _351  and  _354
REMARK  146  A    between atoms: _354  and  _355
REMARK  147  A    between atoms: _355  and  _356
REMARK  148  A    between atoms: _359  and  _361
REMARK  149  A    between atoms: _361  and  _362
REMARK  150  A    between atoms: _361  and  _364
REMARK  151  A    between atoms: _364  and  _365
REMARK  152  A    between atoms: _368  and  _370
REMARK  153  A    between atoms: _370  and  _371
REMARK  154  A    between atoms: _370  and  _373
REMARK  155  A    between atoms: _373  and  _374
REMARK  156  A    between atoms: _379  and  _381
REMARK  157  A    between atoms: _381  and  _382
REMARK  158  A    between atoms: _381  and  _384
REMARK  159  A    between atoms: _384  and  _385
REMARK  160  A    between atoms: _387  and  _389
REMARK  161  A    between atoms: _389  and  _390
REMARK  162  A    between atoms: _389  and  _392
REMARK  163  A    between atoms: _392  and  _393
REMARK  164  A    between atoms: _403  and  _405
REMARK  165  A    between atoms: _405  and  _406
REMARK  166  A    between atoms: _405  and  _408
REMARK  167  A    between atoms: _408  and  _409
REMARK  168  A    between atoms: _412  and  _414
REMARK  169  A    between atoms: _414  and  _415
REMARK  170  A    between atoms: _417  and  _419
REMARK  171  A    between atoms: _419  and  _420
REMARK  172  A    between atoms: _419  and  _422
REMARK  173  A    between atoms: _422  and  _423
REMARK  174  A    between atoms: _428  and  _430
REMARK  175  A    between atoms: _430  and  _431
REMARK  176  A    between atoms: _430  and  _433
REMARK  177  A    between atoms: _433  and  _434
REMARK  178  A    between atoms: _437  and  _439
REMARK  179  A    between atoms: _439  and  _440
REMARK  180  A    between atoms: _439  and  _442
REMARK  181  A    between atoms: _442  and  _443
REMARK  182  A    between atoms: _446  and  _448
REMARK  183  A    between atoms: _448  and  _449
REMARK  184  A    between atoms: _448  and  _451
REMARK  185  A    between atoms: _451  and  _452
REMARK  186  A    between atoms: _452  and  _453
REMARK  187  A    between atoms: _455  and  _457
REMARK  188  A    between atoms: _457  and  _458
REMARK  189  A    between atoms: _457  and  _460
REMARK  190  A    between atoms: _460  and  _461
REMARK  191  A    between atoms: _466  and  _467
REMARK  192  A    between atoms: _469  and  _471
REMARK  193  A    between atoms: _471  and  _472
REMARK  194  A    between atoms: _476  and  _477
REMARK  195  A    between atoms: _482  and  _484
REMARK  196  A    between atoms: _484  and  _485
REMARK  197  A    between atoms: _484  and  _487
REMARK  198  A    between atoms: _487  and  _488
REMARK  199  A    between atoms: _491  and  _493
REMARK  200  A    between atoms: _493  and  _494
REMARK  201  A    between atoms: _493  and  _496
REMARK  202  A    between atoms: _496  and  _497
REMARK  203  A    between atoms: _507  and  _509
REMARK  204  A    between atoms: _509  and  _510
REMARK  205  A    between atoms: _509  and  _512
REMARK  206  A    between atoms: _514  and  _516
REMARK  207  A    between atoms: _516  and  _517
REMARK  208  A    between atoms: _516  and  _519
REMARK  209  A    between atoms: _519  and  _520
REMARK  210  A    between atoms: _520  and  _521
REMARK  211  A    between atoms: _526  and  _528
REMARK  212  A    between atoms: _528  and  _529
REMARK  213  A    between atoms: _528  and  _531
REMARK  214  A    between atoms: _531  and  _532
REMARK  215  A    between atoms: _535  and  _537
REMARK  216  A    between atoms: _537  and  _538
REMARK  217  A    between atoms: _537  and  _540
REMARK  218  A    between atoms: _540  and  _541
REMARK  219  A    between atoms: _546  and  _547
REMARK  220  A    between atoms: _549  and  _551
REMARK  221  A    between atoms: _551  and  _552
REMARK  222  A    between atoms: _554  and  _556
REMARK  223  A    between atoms: _556  and  _557
REMARK  224  A    between atoms: _560  and  _562
REMARK  225  A    between atoms: _562  and  _563
REMARK  226  A    between atoms: _562  and  _565
REMARK  227  A    between atoms: _567  and  _569
REMARK  228  A    between atoms: _569  and  _570
REMARK  229  A    between atoms: _569  and  _572
REMARK  230  A    between atoms: _572  and  _573
REMARK  231  A    between atoms: _578  and  _579
REMARK  232  A    between atoms: _581  and  _583
REMARK  233  A    between atoms: _583  and  _584
REMARK  234  A    between atoms: _583  and  _586
REMARK  235  A    between atoms: _586  and  _587
REMARK  236  A    between atoms: _590  and  _592
REMARK  237  A    between atoms: _592  and  _593
REMARK  238  A    between atoms: _592  and  _595
REMARK  239  A    between atoms: _595  and  _596
REMARK  240  A    between atoms: _601  and  _603
REMARK  241  A    between atoms: _603  and  _604
REMARK  242  A    between atoms: _603  and  _606
REMARK  243  A    between atoms: _606  and  _607
REMARK  244  A    between atoms: _617  and  _619
REMARK  245  A    between atoms: _619  and  _620
REMARK  246  A    between atoms: _619  and  _622
REMARK  247  A    between atoms: _622  and  _623
REMARK  248  A    between atoms: _629  and  _631
REMARK  249  A    between atoms: _631  and  _632
REMARK  250  A    between atoms: _635  and  _637
REMARK  251  A    between atoms: _637  and  _638
REMARK  252  A    between atoms: _640  and  _642
REMARK  253  A    between atoms: _642  and  _643
REMARK  254  A    between atoms: _642  and  _645
REMARK  255  A    between atoms: _645  and  _646
REMARK  256  A    between atoms: _651  and  _652
REMARK  257  A    between atoms: _654  and  _656
REMARK  258  A    between atoms: _656  and  _657
REMARK  259  A    between atoms: _656  and  _659
REMARK  260  A    between atoms: _659  and  _660
REMARK  261  A    between atoms: _662  and  _664
REMARK  262  A    between atoms: _664  and  _665
REMARK                            x       y       z     vdW  Elec       q    Type
REMARK                         _______ _______ _______ _____ _____    ______ ____
ROOT
ATOM      1  NE  ARG A   1     -16.962  -0.942  23.069  0.00  0.00    -0.265 N 
ATOM      2  HE  ARG A   1     -16.833  -0.730  24.079  0.00  0.00    +0.259 HD
ATOM      3  CZ  ARG A   1     -16.204  -1.919  22.548  0.00  0.00    +0.342 C 
ATOM      4  NH2 ARG A   1     -15.319  -2.545  23.321  0.00  0.00    -0.292 N 
ATOM      5 HH21 ARG A   1     -15.219  -2.276  24.321  0.00  0.00    +0.255 HD
ATOM      6 HH22 ARG A   1     -14.727  -3.303  22.925  0.00  0.00    +0.255 HD
ATOM      7  NH1 ARG A   1     -16.322  -2.295  21.271  0.00  0.00    -0.292 N 
ATOM      8 HH11 ARG A   1     -15.721  -3.056  20.895  0.00  0.00    +0.255 HD
ATOM      9 HH12 ARG A   1     -17.015  -1.827  20.653  0.00  0.00    +0.255 HD
ENDROOT
BRANCH   1  10
ATOM     10  CD  ARG A   1     -17.963  -0.140  22.336  0.00  0.00    +0.174 C 
BRANCH  10  11
ATOM     11  CG  ARG A   1     -17.301   1.132  21.765  0.00  0.00    +0.045 C 
BRANCH  11  12
ATOM     12  CB  ARG A   1     -18.138   1.833  20.721  0.00  0.00    +0.029 C 
BRANCH  12  13
ATOM     13  CA  ARG A   1     -17.332   2.867  19.926  0.00  0.00    +0.133 C 
BRANCH  13  14
ATOM     14  N   ARG A   1     -17.213   4.102  20.662  0.00  0.00    -0.239 NA
ATOM     15  H   ARG A   1     -17.903   4.312  21.411  0.00  0.00    +0.142 HD
ENDBRANCH  13  14
BRANCH  13  16
ATOM     16  C   ARG A   1     -18.021   3.173  18.618  0.00  0.00    +0.224 C 
ATOM     17  O   ARG A   1     -18.806   4.111  18.521  0.00  0.00    -0.287 OA
ENDBRANCH  13  16
ENDBRANCH  12  13
ENDBRANCH  11  12
ENDBRANCH  10  11
ENDBRANCH   1  10
TORSDOF 6
REMARK  Name = ../refined-set-2016/3hky/3hky_pocket.pdb
REMARK  262 active torsions:
REMARK  status: ('A' for Active; 'I' for Inactive)
REMARK    1  A    between atoms: _1  and  _3
REMARK    2  A    between atoms: _3  and  _4
REMARK    3  A    between atoms: _3  and  _6
REMARK    4  A    between atoms: _6  and  _7
REMARK    5  A    between atoms: _7  and  _8
REMARK    6  A    between atoms: _8  and  _9
REMARK    7  A    between atoms: _9  and  _10
REMARK    8  A    between atoms: _14  and  _16
REMARK    9  A    between atoms: _16  and  _17
REMARK   10  A    between atoms: _16  and  _19
REMARK   11  A    between atoms: _19  and  _20
REMARK   12  A    between atoms: _20  and  _21
REMARK   13  A    between atoms: _24  and  _26
REMARK   14  A    between atoms: _26  and  _27
REMARK   15  A    between atoms: _26  and  _29
REMARK   16  A    between atoms: _29  and  _30
REMARK   17  A    between atoms: _30  and  _31
REMARK   18  A    between atoms: _31  and  _32
REMARK   19  A    between atoms: _41  and  _43
REMARK   20  A    between atoms: _43  and  _44
REMARK   21  A    between atoms: _46  and  _48
REMARK   22  A    between atoms: _48  and  _49
REMARK   23  A    between atoms: _48  and  _51
REMARK   24  A    between atoms: _51  and  _52
REMARK   25  A    between atoms: _58  and  _60
REMARK   26  A    between atoms: _60  and  _61
REMARK   27  A    between atoms: _60  and  _63
REMARK   28  A    between atoms: _63  and  _64
REMARK   29  A    between atoms: _69  and  _70
REMARK   30  A    between atoms: _72  and  _74
REMARK   31  A    between atoms: _74  and  _75
REMARK   32  A    between atoms: _74  and  _77
REMARK   33  A    between atoms: _77  and  _78
REMARK   34  A    between atoms: _81  and  _82
REMARK   35  A    between atoms: _87  and  _89
REMARK   36  A    between atoms: _89  and  _90
REMARK   37  A    between atoms: _89  and  _92
REMARK   38  A    between atoms: _92  and  _93
REMARK   39  A    between atoms: _93  and  _94
REMARK   40  A    between atoms: _94  and  _95
REMARK   41  A    between atoms: _95  and  _96
REMARK   42  A    between atoms: _100  and  _102
REMARK   43  A    between atoms: _102  and  _103
REMARK   44  A    between atoms: _102  and  _105
REMARK   45  A    between atoms: _105  and  _106
REMARK   46  A    between atoms: _106  and  _107
REMARK   47  A    between atoms: _112  and  _114
REMARK   48  A    between atoms: _114  and  _115
REMARK   49  A    between atoms: _114  and  _117
REMARK   50  A    between atoms: _117  and  _118
REMARK   51  A    between atoms: _118  and  _119
REMARK   52  A    between atoms: _119  and  _120
REMARK   53  A    between atoms: _129  and  _131
REMARK   54  A    between atoms: _131  and  _132
REMARK   55  A    between atoms: _131  and  _134
REMARK   56  A    between atoms: _137  and  _139
REMARK   57  A    between atoms: _139  and  _140
REMARK   58  A    between atoms: _139  and  _142
REMARK   59  A    between atoms: _142  and  _143
REMARK   60  A    between atoms: _146  and  _148
REMARK   61  A    between atoms: _148  and  _149
REMARK   62  A    between atoms: _148  and  _151
REMARK   63  A    between atoms: _151  and  _152
REMARK   64  A    between atoms: _155  and  _157
REMARK   65  A    between atoms: _157  and  _158
REMARK   66  A    between atoms: _157  and  _160
REMARK   67  A    between atoms: _160  and  _161
REMARK   68  A    between atoms: _163  and  _165
REMARK   69  A    between atoms: _165  and  _166
REMARK   70  A    between atoms: _165  and  _168
REMARK   71  A    between atoms: _168  and  _169
REMARK   72  A    between atoms: _172  and  _174
REMARK   73  A    between atoms: _174  and  _175
REMARK   74  A    between atoms: _174  and  _177
REMARK   75  A    between atoms: _177  and  _178
REMARK   76  A    between atoms: _180  and  _182
REMARK   77  A    between atoms: _182  and  _183
REMARK   78  A    between atoms: _182  and  _185
REMARK   79  A    between atoms: _185  and  _186
REMARK   80  A    between atoms: _191  and  _193
REMARK   81  A    between atoms: _193  and  _194
REMARK   82  A    between atoms: _193  and  _196
REMARK   83  A    between atoms: _196  and  _197
REMARK   84  A    between atoms: _200  and  _202
REMARK   85  A    between atoms: _202  and  _203
REMARK   86  A    between atoms: _202  and  _205
REMARK   87  A    between atoms: _205  and  _206
REMARK   88  A    between atoms: _211  and  _213
REMARK   89  A    between atoms: _213  and  _214
REMARK   90  A    between atoms: _216  and  _218
REMARK   91  A    between atoms: _218  and  _219
REMARK   92  A    between atoms: _218  and  _221
REMARK   93  A    between atoms: _221  and  _222
REMARK   94  A    between atoms: _225  and  _227
REMARK   95  A    between atoms: _227  and  _228
REMARK   96  A    between atoms: _227  and  _230
REMARK   97  A    between atoms: _230  and  _231
REMARK   98  A    between atoms: _234  and  _236
REMARK   99  A    between atoms: _236  and  _237
REMARK  100  A    between atoms: _236  and  _239
REMARK  101  A    between atoms: _239  and  _240
REMARK  102  A    between atoms: _242  and  _244
REMARK  103  A    between atoms: _244  and  _245
REMARK  104  A    between atoms: _244  and  _247
REMARK  105  A    between atoms: _249  and  _251
REMARK  106  A    between atoms: _251  and  _252
REMARK  107  A    between atoms: _251  and  _254
REMARK  108  A    between atoms: _254  and  _255
REMARK  109  A    between atoms: _257  and  _259
REMARK  110  A    between atoms: _259  and  _260
REMARK  111  A    between atoms: _259  and  _262
REMARK  112  A    between atoms: _262  and  _263
REMARK  113  A    between atoms: _265  and  _267
REMARK  114  A    between atoms: _267  and  _268
REMARK  115  A    between atoms: _267  and  _270
REMARK  116  A    between atoms: _270  and  _271
REMARK  117  A    between atoms: _276  and  _278
REMARK  118  A    between atoms: _278  and  _279
REMARK  119  A    between atoms: _278  and  _281
REMARK  120  A    between atoms: _281  and  _282
REMARK  121  A    between atoms: _287  and  _288
REMARK  122  A    between atoms: _290  and  _292
REMARK  123  A    between atoms: _292  and  _293
REMARK  124  A    between atoms: _292  and  _295
REMARK  125  A    between atoms: _295  and  _296
REMARK  126  A    between atoms: _299  and  _301
REMARK  127  A    between atoms: _301  and  _302
REMARK  128  A    between atoms: _301  and  _304
REMARK  129  A    between atoms: _304  and  _305
REMARK  130  A    between atoms: _308  and  _310
REMARK  131  A    between atoms: _310  and  _311
REMARK  132  A    between atoms: _310  and  _313
REMARK  133  A    between atoms: _313  and  _314
REMARK  134  A    between atoms: _314  and  _315
REMARK  135  A    between atoms: _315  and  _316
REMARK  136  A    between atoms: _326  and  _327
REMARK  137  A    between atoms: _332  and  _334
REMARK  138  A    between atoms: _334  and  _335
REMARK  139  A    between atoms: _334  and  _337
REMARK  140  A    between atoms: _337  and  _338
REMARK  141  A    between atoms: _338  and  _339
REMARK  142  A    between atoms: _339  and  _340
REMARK  143  A    between atoms: _349  and  _351
REMARK  144  A    between atoms: _351  and  _352
REMARK  145  A    between atoms: _351  and  _354
REMARK  146  A    between atoms: _354  and  _355
REMARK  147  A    between atoms: _355  and  _356
REMARK  148  A    between atoms: _359  and  _361
REMARK  149  A    between atoms: _361  and  _362
REMARK  150  A    between atoms: _361  and  _364
REMARK  151  A    between atoms: _364  and  _365
REMARK  152  A    between atoms: _368  and  _370
REMARK  153  A    between atoms: _370  and  _371
REMARK  154  A    between atoms: _370  and  _373
REMARK  155  A    between atoms: _373  and  _374
REMARK  156  A    between atoms: _379  and  _381
REMARK  157  A    between atoms: _381  and  _382
REMARK  158  A    between atoms: _381  and  _384
REMARK  159  A    between atoms: _384  and  _385
REMARK  160  A    between atoms: _387  and  _389
REMARK  161  A    between atoms: _389  and  _390
REMARK  162  A    between atoms: _389  and  _392
REMARK  163  A    between atoms: _392  and  _393
REMARK  164  A    between atoms: _403  and  _405
REMARK  165  A    between atoms: _405  and  _406
REMARK  166  A    between atoms: _405  and  _408
REMARK  167  A    between atoms: _408  and  _409
REMARK  168  A    between atoms: _412  and  _414
REMARK  169  A    between atoms: _414  and  _415
REMARK  170  A    between atoms: _417  and  _419
REMARK  171  A    between atoms: _419  and  _420
REMARK  172  A    between atoms: _419  and  _422
REMARK  173  A    between atoms: _422  and  _423
REMARK  174  A    between atoms: _428  and  _430
REMARK  175  A    between atoms: _430  and  _431
REMARK  176  A    between atoms: _430  and  _433
REMARK  177  A    between atoms: _433  and  _434
REMARK  178  A    between atoms: _437  and  _439
REMARK  179  A    between atoms: _439  and  _440
REMARK  180  A    between atoms: _439  and  _442
REMARK  181  A    between atoms: _442  and  _443
REMARK  182  A    between atoms: _446  and  _448
REMARK  183  A    between atoms: _448  and  _449
REMARK  184  A    between atoms: _448  and  _451
REMARK  185  A    between atoms: _451  and  _452
REMARK  186  A    between atoms: _452  and  _453
REMARK  187  A    between atoms: _455  and  _457
REMARK  188  A    between atoms: _457  and  _458
REMARK  189  A    between atoms: _457  and  _460
REMARK  190  A    between atoms: _460  and  _461
REMARK  191  A    between atoms: _466  and  _467
REMARK  192  A    between atoms: _469  and  _471
REMARK  193  A    between atoms: _471  and  _472
REMARK  194  A    between atoms: _476  and  _477
REMARK  195  A    between atoms: _482  and  _484
REMARK  196  A    between atoms: _484  and  _485
REMARK  197  A    between atoms: _484  and  _487
REMARK  198  A    between atoms: _487  and  _488
REMARK  199  A    between atoms: _491  and  _493
REMARK  200  A    between atoms: _493  and  _494
REMARK  201  A    between atoms: _493  and  _496
REMARK  202  A    between atoms: _496  and  _497
REMARK  203  A    between atoms: _507  and  _509
REMARK  204  A    between atoms: _509  and  _510
REMARK  205  A    between atoms: _509  and  _512
REMARK  206  A    between atoms: _514  and  _516
REMARK  207  A    between atoms: _516  and  _517
REMARK  208  A    between atoms: _516  and  _519
REMARK  209  A    between atoms: _519  and  _520
REMARK  210  A    between atoms: _520  and  _521
REMARK  211  A    between atoms: _526  and  _528
REMARK  212  A    between atoms: _528  and  _529
REMARK  213  A    between atoms: _528  and  _531
REMARK  214  A    between atoms: _531  and  _532
REMARK  215  A    between atoms: _535  and  _537
REMARK  216  A    between atoms: _537  and  _538
REMARK  217  A    between atoms: _537  and  _540
REMARK  218  A    between atoms: _540  and  _541
REMARK  219  A    between atoms: _546  and  _547
REMARK  220  A    between atoms: _549  and  _551
REMARK  221  A    between atoms: _551  and  _552
REMARK  222  A    between atoms: _554  and  _556
REMARK  223  A    between atoms: _556  and  _557
REMARK  224  A    between atoms: _560  and  _562
REMARK  225  A    between atoms: _562  and  _563
REMARK  226  A    between atoms: _562  and  _565
REMARK  227  A    between atoms: _567  and  _569
REMARK  228  A    between atoms: _569  and  _570
REMARK  229  A    between atoms: _569  and  _572
REMARK  230  A    between atoms: _572  and  _573
REMARK  231  A    between atoms: _578  and  _579
REMARK  232  A    between atoms: _581  and  _583
REMARK  233  A    between atoms: _583  and  _584
REMARK  234  A    between atoms: _583  and  _586
REMARK  235  A    between atoms: _586  and  _587
REMARK  236  A    between atoms: _590  and  _592
REMARK  237  A    between atoms: _592  and  _593
REMARK  238  A    between atoms: _592  and  _595
REMARK  239  A    between atoms: _595  and  _596
REMARK  240  A    between atoms: _601  and  _603
REMARK  241  A    between atoms: _603  and  _604
REMARK  242  A    between atoms: _603  and  _606
REMARK  243  A    between atoms: _606  and  _607
REMARK  244  A    between atoms: _617  and  _619
REMARK  245  A    between atoms: _619  and  _620
REMARK  246  A    between atoms: _619  and  _622
REMARK  247  A    between atoms: _622  and  _623
REMARK  248  A    between atoms: _629  and  _631
REMARK  249  A    between atoms: _631  and  _632
REMARK  250  A    between atoms: _635  and  _637
REMARK  251  A    between atoms: _637  and  _638
REMARK  252  A    between atoms: _640  and  _642
REMARK  253  A    between atoms: _642  and  _643
REMARK  254  A    between atoms: _642  and  _645
REMARK  255  A    between atoms: _645  and  _646
REMARK  256  A    between atoms: _651  and  _652
REMARK  257  A    between atoms: _654  and  _656
REMARK  258  A    between atoms: _656  and  _657
REMARK  259  A    between atoms: _656  and  _659
REMARK  260  A    between atoms: _659  and  _660
REMARK  261  A    between atoms: _662  and  _664
REMARK  262  A    between atoms: _664  and  _665
REMARK                            x       y       z     vdW  Elec       q    Type
REMARK                         _______ _______ _______ _____ _____    ______ ____
ROOT
ATOM      1  CA  PHE A   2     -27.682 -16.173  27.763  0.00  0.00    +0.141 C 
ENDROOT
BRANCH   1   4
ATOM      2  C   GLY A   1     -25.909 -17.292  29.012  0.00  0.00    +0.240 C 
ATOM      3  O   GLY A   1     -26.462 -17.062  30.082  0.00  0.00    -0.274 OA
ATOM      4  N   PHE A   2     -26.463 -17.000  27.835  0.00  0.00    -0.298 N 
ATOM      5  H   PHE A   2     -26.031 -17.359  26.959  0.00  0.00    +0.150 HD
BRANCH   2   6
ATOM      6  CA  GLY A   1     -24.519 -17.889  28.998  0.00  0.00    +0.169 C 
BRANCH   6   7
ATOM      7  N   GLY A   1     -24.220 -18.720  27.847  0.00  0.00    -0.236 NA
ATOM      8  H   GLY A   1     -23.532 -18.394  27.139  0.00  0.00    +0.142 HD
ENDBRANCH   6   7
ENDBRANCH   2   6
ENDBRANCH   1   4
BRANCH   1   9
ATOM      9  C   PHE A   2     -28.934 -16.909  28.138  0.00  0.00    +0.227 C 
ATOM     10  O   PHE A   2     -30.030 -16.317  28.173  0.00  0.00    -0.286 OA
ENDBRANCH   1   9
BRANCH   1  11
ATOM     11  CB  PHE A   2     -27.827 -15.547  26.381  0.00  0.00    +0.054 C 
BRANCH  11  12
ATOM     12  CG  PHE A   2     -26.746 -14.516  26.069  0.00  0.00    -0.020 A 
ATOM     13  CD2 PHE A   2     -26.772 -13.271  26.680  0.00  0.00    -0.004 A 
ATOM     14  CE2 PHE A   2     -25.796 -12.318  26.409  0.00  0.00    -0.000 A 
ATOM     15  CZ  PHE A   2     -24.861 -12.611  25.487  0.00  0.00    -0.000 A 
ATOM     16  CE1 PHE A   2     -24.828 -13.857  24.860  0.00  0.00    -0.000 A 
ATOM     17  CD1 PHE A   2     -25.771 -14.787  25.139  0.00  0.00    -0.004 A 
ENDBRANCH  11  12
ENDBRANCH   1  11
TORSDOF 6
REMARK  Name = ../refined-set-2016/3hky/3hky_pocket.pdb
REMARK  262 active torsions:
REMARK  status: ('A' for Active; 'I' for Inactive)
REMARK    1  A    between atoms: _1  and  _3
REMARK    2  A    between atoms: _3  and  _4
REMARK    3  A    between atoms: _3  and  _6
REMARK    4  A    between atoms: _6  and  _7
REMARK    5  A    between atoms: _7  and  _8
REMARK    6  A    between atoms: _8  and  _9
REMARK    7  A    between atoms: _9  and  _10
REMARK    8  A    between atoms: _14  and  _16
REMARK    9  A    between atoms: _16  and  _17
REMARK   10  A    between atoms: _16  and  _19
REMARK   11  A    between atoms: _19  and  _20
REMARK   12  A    between atoms: _20  and  _21
REMARK   13  A    between atoms: _24  and  _26
REMARK   14  A    between atoms: _26  and  _27
REMARK   15  A    between atoms: _26  and  _29
REMARK   16  A    between atoms: _29  and  _30
REMARK   17  A    between atoms: _30  and  _31
REMARK   18  A    between atoms: _31  and  _32
REMARK   19  A    between atoms: _41  and  _43
REMARK   20  A    between atoms: _43  and  _44
REMARK   21  A    between atoms: _46  and  _48
REMARK   22  A    between atoms: _48  and  _49
REMARK   23  A    between atoms: _48  and  _51
REMARK   24  A    between atoms: _51  and  _52
REMARK   25  A    between atoms: _58  and  _60
REMARK   26  A    between atoms: _60  and  _61
REMARK   27  A    between atoms: _60  and  _63
REMARK   28  A    between atoms: _63  and  _64
REMARK   29  A    between atoms: _69  and  _70
REMARK   30  A    between atoms: _72  and  _74
REMARK   31  A    between atoms: _74  and  _75
REMARK   32  A    between atoms: _74  and  _77
REMARK   33  A    between atoms: _77  and  _78
REMARK   34  A    between atoms: _81  and  _82
REMARK   35  A    between atoms: _87  and  _89
REMARK   36  A    between atoms: _89  and  _90
REMARK   37  A    between atoms: _89  and  _92
REMARK   38  A    between atoms: _92  and  _93
REMARK   39  A    between atoms: _93  and  _94
REMARK   40  A    between atoms: _94  and  _95
REMARK   41  A    between atoms: _95  and  _96
REMARK   42  A    between atoms: _100  and  _102
REMARK   43  A    between atoms: _102  and  _103
REMARK   44  A    between atoms: _102  and  _105
REMARK   45  A    between atoms: _105  and  _106
REMARK   46  A    between atoms: _106  and  _107
REMARK   47  A    between atoms: _112  and  _114
REMARK   48  A    between atoms: _114  and  _115
REMARK   49  A    between atoms: _114  and  _117
REMARK   50  A    between atoms: _117  and  _118
REMARK   51  A    between atoms: _118  and  _119
REMARK   52  A    between atoms: _119  and  _120
REMARK   53  A    between atoms: _129  and  _131
REMARK   54  A    between atoms: _131  and  _132
REMARK   55  A    between atoms: _131  and  _134
REMARK   56  A    between atoms: _137  and  _139
REMARK   57  A    between atoms: _139  and  _140
REMARK   58  A    between atoms: _139  and  _142
REMARK   59  A    between atoms: _142  and  _143
REMARK   60  A    between atoms: _146  and  _148
REMARK   61  A    between atoms: _148  and  _149
REMARK   62  A    between atoms: _148  and  _151
REMARK   63  A    between atoms: _151  and  _152
REMARK   64  A    between atoms: _155  and  _157
REMARK   65  A    between atoms: _157  and  _158
REMARK   66  A    between atoms: _157  and  _160
REMARK   67  A    between atoms: _160  and  _161
REMARK   68  A    between atoms: _163  and  _165
REMARK   69  A    between atoms: _165  and  _166
REMARK   70  A    between atoms: _165  and  _168
REMARK   71  A    between atoms: _168  and  _169
REMARK   72  A    between atoms: _172  and  _174
REMARK   73  A    between atoms: _174  and  _175
REMARK   74  A    between atoms: _174  and  _177
REMARK   75  A    between atoms: _177  and  _178
REMARK   76  A    between atoms: _180  and  _182
REMARK   77  A    between atoms: _182  and  _183
REMARK   78  A    between atoms: _182  and  _185
REMARK   79  A    between atoms: _185  and  _186
REMARK   80  A    between atoms: _191  and  _193
REMARK   81  A    between atoms: _193  and  _194
REMARK   82  A    between atoms: _193  and  _196
REMARK   83  A    between atoms: _196  and  _197
REMARK   84  A    between atoms: _200  and  _202
REMARK   85  A    between atoms: _202  and  _203
REMARK   86  A    between atoms: _202  and  _205
REMARK   87  A    between atoms: _205  and  _206
REMARK   88  A    between atoms: _211  and  _213
REMARK   89  A    between atoms: _213  and  _214
REMARK   90  A    between atoms: _216  and  _218
REMARK   91  A    between atoms: _218  and  _219
REMARK   92  A    between atoms: _218  and  _221
REMARK   93  A    between atoms: _221  and  _222
REMARK   94  A    between atoms: _225  and  _227
REMARK   95  A    between atoms: _227  and  _228
REMARK   96  A    between atoms: _227  and  _230
REMARK   97  A    between atoms: _230  and  _231
REMARK   98  A    between atoms: _234  and  _236
REMARK   99  A    between atoms: _236  and  _237
REMARK  100  A    between atoms: _236  and  _239
REMARK  101  A    between atoms: _239  and  _240
REMARK  102  A    between atoms: _242  and  _244
REMARK  103  A    between atoms: _244  and  _245
REMARK  104  A    between atoms: _244  and  _247
REMARK  105  A    between atoms: _249  and  _251
REMARK  106  A    between atoms: _251  and  _252
REMARK  107  A    between atoms: _251  and  _254
REMARK  108  A    between atoms: _254  and  _255
REMARK  109  A    between atoms: _257  and  _259
REMARK  110  A    between atoms: _259  and  _260
REMARK  111  A    between atoms: _259  and  _262
REMARK  112  A    between atoms: _262  and  _263
REMARK  113  A    between atoms: _265  and  _267
REMARK  114  A    between atoms: _267  and  _268
REMARK  115  A    between atoms: _267  and  _270
REMARK  116  A    between atoms: _270  and  _271
REMARK  117  A    between atoms: _276  and  _278
REMARK  118  A    between atoms: _278  and  _279
REMARK  119  A    between atoms: _278  and  _281
REMARK  120  A    between atoms: _281  and  _282
REMARK  121  A    between atoms: _287  and  _288
REMARK  122  A    between atoms: _290  and  _292
REMARK  123  A    between atoms: _292  and  _293
REMARK  124  A    between atoms: _292  and  _295
REMARK  125  A    between atoms: _295  and  _296
REMARK  126  A    between atoms: _299  and  _301
REMARK  127  A    between atoms: _301  and  _302
REMARK  128  A    between atoms: _301  and  _304
REMARK  129  A    between atoms: _304  and  _305
REMARK  130  A    between atoms: _308  and  _310
REMARK  131  A    between atoms: _310  and  _311
REMARK  132  A    between atoms: _310  and  _313
REMARK  133  A    between atoms: _313  and  _314
REMARK  134  A    between atoms: _314  and  _315
REMARK  135  A    between atoms: _315  and  _316
REMARK  136  A    between atoms: _326  and  _327
REMARK  137  A    between atoms: _332  and  _334
REMARK  138  A    between atoms: _334  and  _335
REMARK  139  A    between atoms: _334  and  _337
REMARK  140  A    between atoms: _337  and  _338
REMARK  141  A    between atoms: _338  and  _339
REMARK  142  A    between atoms: _339  and  _340
REMARK  143  A    between atoms: _349  and  _351
REMARK  144  A    between atoms: _351  and  _352
REMARK  145  A    between atoms: _351  and  _354
REMARK  146  A    between atoms: _354  and  _355
REMARK  147  A    between atoms: _355  and  _356
REMARK  148  A    between atoms: _359  and  _361
REMARK  149  A    between atoms: _361  and  _362
REMARK  150  A    between atoms: _361  and  _364
REMARK  151  A    between atoms: _364  and  _365
REMARK  152  A    between atoms: _368  and  _370
REMARK  153  A    between atoms: _370  and  _371
REMARK  154  A    between atoms: _370  and  _373
REMARK  155  A    between atoms: _373  and  _374
REMARK  156  A    between atoms: _379  and  _381
REMARK  157  A    between atoms: _381  and  _382
REMARK  158  A    between atoms: _381  and  _384
REMARK  159  A    between atoms: _384  and  _385
REMARK  160  A    between atoms: _387  and  _389
REMARK  161  A    between atoms: _389  and  _390
REMARK  162  A    between atoms: _389  and  _392
REMARK  163  A    between atoms: _392  and  _393
REMARK  164  A    between atoms: _403  and  _405
REMARK  165  A    between atoms: _405  and  _406
REMARK  166  A    between atoms: _405  and  _408
REMARK  167  A    between atoms: _408  and  _409
REMARK  168  A    between atoms: _412  and  _414
REMARK  169  A    between atoms: _414  and  _415
REMARK  170  A    between atoms: _417  and  _419
REMARK  171  A    between atoms: _419  and  _420
REMARK  172  A    between atoms: _419  and  _422
REMARK  173  A    between atoms: _422  and  _423
REMARK  174  A    between atoms: _428  and  _430
REMARK  175  A    between atoms: _430  and  _431
REMARK  176  A    between atoms: _430  and  _433
REMARK  177  A    between atoms: _433  and  _434
REMARK  178  A    between atoms: _437  and  _439
REMARK  179  A    between atoms: _439  and  _440
REMARK  180  A    between atoms: _439  and  _442
REMARK  181  A    between atoms: _442  and  _443
REMARK  182  A    between atoms: _446  and  _448
REMARK  183  A    between atoms: _448  and  _449
REMARK  184  A    between atoms: _448  and  _451
REMARK  185  A    between atoms: _451  and  _452
REMARK  186  A    between atoms: _452  and  _453
REMARK  187  A    between atoms: _455  and  _457
REMARK  188  A    between atoms: _457  and  _458
REMARK  189  A    between atoms: _457  and  _460
REMARK  190  A    between atoms: _460  and  _461
REMARK  191  A    between atoms: _466  and  _467
REMARK  192  A    between atoms: _469  and  _471
REMARK  193  A    between atoms: _471  and  _472
REMARK  194  A    between atoms: _476  and  _477
REMARK  195  A    between atoms: _482  and  _484
REMARK  196  A    between atoms: _484  and  _485
REMARK  197  A    between atoms: _484  and  _487
REMARK  198  A    between atoms: _487  and  _488
REMARK  199  A    between atoms: _491  and  _493
REMARK  200  A    between atoms: _493  and  _494
REMARK  201  A    between atoms: _493  and  _496
REMARK  202  A    between atoms: _496  and  _497
REMARK  203  A    between atoms: _507  and  _509
REMARK  204  A    between atoms: _509  and  _510
REMARK  205  A    between atoms: _509  and  _512
REMARK  206  A    between atoms: _514  and  _516
REMARK  207  A    between atoms: _516  and  _517
REMARK  208  A    between atoms: _516  and  _519
REMARK  209  A    between atoms: _519  and  _520
REMARK  210  A    between atoms: _520  and  _521
REMARK  211  A    between atoms: _526  and  _528
REMARK  212  A    between atoms: _528  and  _529
REMARK  213  A    between atoms: _528  and  _531
REMARK  214  A    between atoms: _531  and  _532
REMARK  215  A    between atoms: _535  and  _537
REMARK  216  A    between atoms: _537  and  _538
REMARK  217  A    between atoms: _537  and  _540
REMARK  218  A    between atoms: _540  and  _541
REMARK  219  A    between atoms: _546  and  _547
REMARK  220  A    between atoms: _549  and  _551
REMARK  221  A    between atoms: _551  and  _552
REMARK  222  A    between atoms: _554  and  _556
REMARK  223  A    between atoms: _556  and  _557
REMARK  224  A    between atoms: _560  and  _562
REMARK  225  A    between atoms: _562  and  _563
REMARK  226  A    between atoms: _562  and  _565
REMARK  227  A    between atoms: _567  and  _569
REMARK  228  A    between atoms: _569  and  _570
REMARK  229  A    between atoms: _569  and  _572
REMARK  230  A    between atoms: _572  and  _573
REMARK  231  A    between atoms: _578  and  _579
REMARK  232  A    between atoms: _581  and  _583
REMARK  233  A    between atoms: _583  and  _584
REMARK  234  A    between atoms: _583  and  _586
REMARK  235  A    between atoms: _586  and  _587
REMARK  236  A    between atoms: _590  and  _592
REMARK  237  A    between atoms: _592  and  _593
REMARK  238  A    between atoms: _592  and  _595
REMARK  239  A    between atoms: _595  and  _596
REMARK  240  A    between atoms: _601  and  _603
REMARK  241  A    between atoms: _603  and  _604
REMARK  242  A    between atoms: _603  and  _606
REMARK  243  A    between atoms: _606  and  _607
REMARK  244  A    between atoms: _617  and  _619
REMARK  245  A    between atoms: _619  and  _620
REMARK  246  A    between atoms: _619  and  _622
REMARK  247  A    between atoms: _622  and  _623
REMARK  248  A    between atoms: _629  and  _631
REMARK  249  A    between atoms: _631  and  _632
REMARK  250  A    between atoms: _635  and  _637
REMARK  251  A    between atoms: _637  and  _638
REMARK  252  A    between atoms: _640  and  _642
REMARK  253  A    between atoms: _642  and  _643
REMARK  254  A    between atoms: _642  and  _645
REMARK  255  A    between atoms: _645  and  _646
REMARK  256  A    between atoms: _651  and  _652
REMARK  257  A    between atoms: _654  and  _656
REMARK  258  A    between atoms: _656  and  _657
REMARK  259  A    between atoms: _656  and  _659
REMARK  260  A    between atoms: _659  and  _660
REMARK  261  A    between atoms: _662  and  _664
REMARK  262  A    between atoms: _664  and  _665
REMARK                            x       y       z     vdW  Elec       q    Type
REMARK                         _______ _______ _______ _____ _____    ______ ____
ROOT
ATOM      1  CA  LYS A   4     -29.673 -16.350  40.026  0.00  0.00    +0.149 C 
ENDROOT
BRANCH   1   2
ATOM      2  C   LYS A   4     -29.188 -17.685  39.435  0.00  0.00    +0.241 C 
ATOM      3  O   LYS A   4     -28.443 -18.412  40.090  0.00  0.00    -0.273 OA
ATOM      4  N   GLN A   5     -29.588 -17.995  38.200  0.00  0.00    -0.297 N 
ATOM      5  H   GLN A   5     -30.208 -17.339  37.684  0.00  0.00    +0.150 HD
BRANCH   4   6
ATOM      6  CA  GLN A   5     -29.171 -19.235  37.564  0.00  0.00    +0.149 C 
BRANCH   6   7
ATOM      7  C   GLN A   5     -27.710 -19.146  37.139  0.00  0.00    +0.241 C 
ATOM      8  O   GLN A   5     -27.003 -20.149  37.197  0.00  0.00    -0.273 OA
ATOM      9  N   ARG A   6     -27.246 -17.950  36.756  0.00  0.00    -0.297 N 
ATOM     10  H   ARG A   6     -27.891 -17.134  36.756  0.00  0.00    +0.150 HD
BRANCH   9  11
ATOM     11  CA  ARG A   6     -25.846 -17.757  36.334  0.00  0.00    +0.149 C 
BRANCH  11  12
ATOM     12  C   ARG A   6     -24.907 -17.874  37.516  0.00  0.00    +0.241 C 
ATOM     13  N   VAL A   7     -25.263 -17.234  38.632  0.00  0.00    -0.298 N 
ATOM     14  H   VAL A   7     -26.117 -16.641  38.626  0.00  0.00    +0.150 HD
ATOM     15  O   ARG A   6     -23.883 -18.545  37.417  0.00  0.00    -0.273 OA
BRANCH  13  16
ATOM     16  CA  VAL A   7     -24.477 -17.347  39.868  0.00  0.00    +0.137 C 
BRANCH  16  17
ATOM     17  CB  VAL A   7     -24.903 -16.258  40.946  0.00  0.00    +0.026 C 
ATOM     18  CG2 VAL A   7     -23.749 -15.953  41.871  0.00  0.00    +0.002 C 
ATOM     19  CG1 VAL A   7     -26.107 -16.652  41.737  0.00  0.00    +0.002 C 
ENDBRANCH  16  17
BRANCH  16  20
ATOM     20  C   VAL A   7     -24.426 -18.789  40.405  0.00  0.00    +0.227 C 
ATOM     21  O   VAL A   7     -23.387 -19.238  40.868  0.00  0.00    -0.286 OA
ENDBRANCH  16  20
ENDBRANCH  13  16
ENDBRANCH  11  12
BRANCH  11  22
ATOM     22  CB  ARG A   6     -25.641 -16.395  35.646  0.00  0.00    +0.033 C 
BRANCH  22  23
ATOM     23  CG  ARG A   6     -24.181 -16.148  35.157  0.00  0.00    +0.045 C 
BRANCH  23  24
ATOM     24  CD  ARG A   6     -23.920 -14.706  34.702  0.00  0.00    +0.174 C 
BRANCH  24  25
ATOM     25  NE  ARG A   6     -22.494 -14.533  34.340  0.00  0.00    -0.265 N 
ATOM     26  HE  ARG A   6     -21.832 -14.231  35.083  0.00  0.00    +0.259 HD
ATOM     27  CZ  ARG A   6     -22.013 -14.743  33.116  0.00  0.00    +0.342 C 
ATOM     28  NH2 ARG A   6     -20.720 -14.611  32.861  0.00  0.00    -0.292 N 
ATOM     29 HH21 ARG A   6     -20.065 -14.340  33.622  0.00  0.00    +0.255 HD
ATOM     30 HH22 ARG A   6     -20.360 -14.778  31.900  0.00  0.00    +0.255 HD
ATOM     31  NH1 ARG A   6     -22.823 -15.135  32.147  0.00  0.00    -0.292 N 
ATOM     32 HH11 ARG A   6     -23.835 -15.279  32.341  0.00  0.00    +0.255 HD
ATOM     33 HH12 ARG A   6     -22.449 -15.299  31.191  0.00  0.00    +0.255 HD
ENDBRANCH  24  25
ENDBRANCH  23  24
ENDBRANCH  22  23
ENDBRANCH  11  22
ENDBRANCH   9  11
ENDBRANCH   6   7
BRANCH   6  34
ATOM     34  CB  GLN A   5     -30.044 -19.568  36.361  0.00  0.00    +0.039 C 
BRANCH  34  35
ATOM     35  CG  GLN A   5     -31.492 -19.853  36.752  0.00  0.00    +0.087 C 
BRANCH  35  36
ATOM     36  CD  GLN A   5     -32.391 -19.968  35.562  0.00  0.00    +0.219 C 
ATOM     37  NE2 GLN A   5     -33.514 -20.674  35.741  0.00  0.00    -0.329 N 
ATOM     38 HE21 GLN A   5     -33.708 -21.118  36.661  0.00  0.00    +0.145 HD
ATOM     39 HE22 GLN A   5     -34.193 -20.778  34.960  0.00  0.00    +0.145 HD
ATOM     40  OE1 GLN A   5     -32.115 -19.423  34.494  0.00  0.00    -0.275 OA
ENDBRANCH  35  36
ENDBRANCH  34  35
ENDBRANCH   6  34
ENDBRANCH   4   6
ENDBRANCH   1   2
BRANCH   1  42
ATOM     41  C   PRO A   3     -28.804 -14.840  38.341  0.00  0.00    +0.241 C 
ATOM     42  N   LYS A   4     -29.857 -15.304  39.008  0.00  0.00    -0.297 N 
ATOM     43  H   LYS A   4     -30.807 -14.929  38.811  0.00  0.00    +0.150 HD
ATOM     44  O   PRO A   3     -27.662 -15.240  38.568  0.00  0.00    -0.273 OA
BRANCH  41  47
ATOM     45  C   SER A   2     -30.121 -15.255  35.686  0.00  0.00    +0.246 C 
ATOM     46  N   PRO A   3     -30.144 -14.094  36.363  0.00  0.00    -0.272 N 
ATOM     47  CA  PRO A   3     -29.040 -13.779  37.254  0.00  0.00    +0.152 C 
ATOM     48  CB  PRO A   3     -29.488 -12.455  37.871  0.00  0.00    +0.031 C 
ATOM     49  CG  PRO A   3     -30.305 -11.851  36.811  0.00  0.00    +0.024 C 
ATOM     50  CD  PRO A   3     -31.125 -13.000  36.334  0.00  0.00    +0.094 C 
ATOM     51  O   SER A   2     -29.176 -16.028  35.778  0.00  0.00    -0.273 OA
BRANCH  45  52
ATOM     52  CA  SER A   2     -31.318 -15.581  34.771  0.00  0.00    +0.178 C 
BRANCH  52  54
ATOM     53  C   TYR A   1     -29.997 -16.730  33.074  0.00  0.00    +0.239 C 
ATOM     54  N   SER A   2     -31.013 -16.754  33.938  0.00  0.00    -0.295 N 
ATOM     55  H   SER A   2     -31.596 -17.611  34.023  0.00  0.00    +0.150 HD
ATOM     56  O   TYR A   1     -29.506 -15.691  32.652  0.00  0.00    -0.274 OA
BRANCH  53  57
ATOM     57  CA  TYR A   1     -29.463 -18.071  32.593  0.00  0.00    +0.149 C 
BRANCH  57  58
ATOM     58  N   TYR A   1     -29.400 -18.146  31.134  0.00  0.00    -0.238 NA
ATOM     59  H   TYR A   1     -28.646 -17.617  30.652  0.00  0.00    +0.142 HD
ENDBRANCH  57  58
BRANCH  57  60
ATOM     60  CB  TYR A   1     -28.065 -18.273  33.210  0.00  0.00    +0.053 C 
BRANCH  60  61
ATOM     61  CG  TYR A   1     -27.437 -19.612  32.910  0.00  0.00    -0.020 A 
ATOM     62  CD2 TYR A   1     -28.070 -20.800  33.265  0.00  0.00    -0.001 A 
ATOM     63  CE2 TYR A   1     -27.495 -22.044  32.976  0.00  0.00    +0.036 A 
ATOM     64  CZ  TYR A   1     -26.281 -22.093  32.309  0.00  0.00    +0.134 A 
ATOM     65  CE1 TYR A   1     -25.638 -20.924  31.962  0.00  0.00    +0.036 A 
ATOM     66  CD1 TYR A   1     -26.213 -19.697  32.255  0.00  0.00    -0.001 A 
BRANCH  64  67
ATOM     67  OH  TYR A   1     -25.714 -23.319  32.015  0.00  0.00    -0.506 OA
ATOM     68  HH  TYR A   1     -26.310 -24.042  32.335  0.00  0.00    +0.292 HD
ENDBRANCH  64  67
ENDBRANCH  60  61
ENDBRANCH  57  60
ENDBRANCH  53  57
ENDBRANCH  52  54
BRANCH  52  69
ATOM     69  CB  SER A   2     -32.561 -15.838  35.621  0.00  0.00    +0.166 C 
BRANCH  69  70
ATOM     70  OG  SER A   2     -32.286 -16.807  36.615  0.00  0.00    -0.380 OA
ATOM     71  H   SER A   2     -33.100 -16.962  37.157  0.00  0.00    +0.211 HD
ENDBRANCH  69  70
ENDBRANCH  52  69
ENDBRANCH  45  52
ENDBRANCH  41  47
ENDBRANCH   1  42
BRANCH   1  72
ATOM     72  CB  LYS A   4     -30.928 -16.554  40.882  0.00  0.00    +0.029 C 
BRANCH  72  73
ATOM     73  CG  LYS A   4     -32.112 -17.133  40.173  0.00  0.00    +0.000 C 
BRANCH  73  74
ATOM     74  CD  LYS A   4     -33.326 -17.236  41.105  0.00  0.00    -0.024 C 
BRANCH  74  75
ATOM     75  CE  LYS A   4     -33.305 -18.477  41.960  0.00  0.00    -0.086 C 
BRANCH  75  76
ATOM     76  NZ  LYS A   4     -34.694 -18.840  42.423  0.00  0.00    +0.380 N 
ATOM     77  HZ1 LYS A   4     -34.650 -19.698  43.009  0.00  0.00    -0.089 HD
ATOM     78  HZ2 LYS A   4     -35.088 -18.056  42.982  0.00  0.00    -0.089 HD
ATOM     79  HZ3 LYS A   4     -35.299 -19.015  41.596  0.00  0.00    -0.089 HD
ENDBRANCH  75  76
ENDBRANCH  74  75
ENDBRANCH  73  74
ENDBRANCH  72  73
ENDBRANCH   1  72
TORSDOF 31
REMARK  Name = ../refined-set-2016/3hky/3hky_pocket.pdb
REMARK  262 active torsions:
REMARK  status: ('A' for Active; 'I' for Inactive)
REMARK    1  A    between atoms: _1  and  _3
REMARK    2  A    between atoms: _3  and  _4
REMARK    3  A    between atoms: _3  and  _6
REMARK    4  A    between atoms: _6  and  _7
REMARK    5  A    between atoms: _7  and  _8
REMARK    6  A    between atoms: _8  and  _9
REMARK    7  A    between atoms: _9  and  _10
REMARK    8  A    between atoms: _14  and  _16
REMARK    9  A    between atoms: _16  and  _17
REMARK   10  A    between atoms: _16  and  _19
REMARK   11  A    between atoms: _19  and  _20
REMARK   12  A    between atoms: _20  and  _21
REMARK   13  A    between atoms: _24  and  _26
REMARK   14  A    between atoms: _26  and  _27
REMARK   15  A    between atoms: _26  and  _29
REMARK   16  A    between atoms: _29  and  _30
REMARK   17  A    between atoms: _30  and  _31
REMARK   18  A    between atoms: _31  and  _32
REMARK   19  A    between atoms: _41  and  _43
REMARK   20  A    between atoms: _43  and  _44
REMARK   21  A    between atoms: _46  and  _48
REMARK   22  A    between atoms: _48  and  _49
REMARK   23  A    between atoms: _48  and  _51
REMARK   24  A    between atoms: _51  and  _52
REMARK   25  A    between atoms: _58  and  _60
REMARK   26  A    between atoms: _60  and  _61
REMARK   27  A    between atoms: _60  and  _63
REMARK   28  A    between atoms: _63  and  _64
REMARK   29  A    between atoms: _69  and  _70
REMARK   30  A    between atoms: _72  and  _74
REMARK   31  A    between atoms: _74  and  _75
REMARK   32  A    between atoms: _74  and  _77
REMARK   33  A    between atoms: _77  and  _78
REMARK   34  A    between atoms: _81  and  _82
REMARK   35  A    between atoms: _87  and  _89
REMARK   36  A    between atoms: _89  and  _90
REMARK   37  A    between atoms: _89  and  _92
REMARK   38  A    between atoms: _92  and  _93
REMARK   39  A    between atoms: _93  and  _94
REMARK   40  A    between atoms: _94  and  _95
REMARK   41  A    between atoms: _95  and  _96
REMARK   42  A    between atoms: _100  and  _102
REMARK   43  A    between atoms: _102  and  _103
REMARK   44  A    between atoms: _102  and  _105
REMARK   45  A    between atoms: _105  and  _106
REMARK   46  A    between atoms: _106  and  _107
REMARK   47  A    between atoms: _112  and  _114
REMARK   48  A    between atoms: _114  and  _115
REMARK   49  A    between atoms: _114  and  _117
REMARK   50  A    between atoms: _117  and  _118
REMARK   51  A    between atoms: _118  and  _119
REMARK   52  A    between atoms: _119  and  _120
REMARK   53  A    between atoms: _129  and  _131
REMARK   54  A    between atoms: _131  and  _132
REMARK   55  A    between atoms: _131  and  _134
REMARK   56  A    between atoms: _137  and  _139
REMARK   57  A    between atoms: _139  and  _140
REMARK   58  A    between atoms: _139  and  _142
REMARK   59  A    between atoms: _142  and  _143
REMARK   60  A    between atoms: _146  and  _148
REMARK   61  A    between atoms: _148  and  _149
REMARK   62  A    between atoms: _148  and  _151
REMARK   63  A    between atoms: _151  and  _152
REMARK   64  A    between atoms: _155  and  _157
REMARK   65  A    between atoms: _157  and  _158
REMARK   66  A    between atoms: _157  and  _160
REMARK   67  A    between atoms: _160  and  _161
REMARK   68  A    between atoms: _163  and  _165
REMARK   69  A    between atoms: _165  and  _166
REMARK   70  A    between atoms: _165  and  _168
REMARK   71  A    between atoms: _168  and  _169
REMARK   72  A    between atoms: _172  and  _174
REMARK   73  A    between atoms: _174  and  _175
REMARK   74  A    between atoms: _174  and  _177
REMARK   75  A    between atoms: _177  and  _178
REMARK   76  A    between atoms: _180  and  _182
REMARK   77  A    between atoms: _182  and  _183
REMARK   78  A    between atoms: _182  and  _185
REMARK   79  A    between atoms: _185  and  _186
REMARK   80  A    between atoms: _191  and  _193
REMARK   81  A    between atoms: _193  and  _194
REMARK   82  A    between atoms: _193  and  _196
REMARK   83  A    between atoms: _196  and  _197
REMARK   84  A    between atoms: _200  and  _202
REMARK   85  A    between atoms: _202  and  _203
REMARK   86  A    between atoms: _202  and  _205
REMARK   87  A    between atoms: _205  and  _206
REMARK   88  A    between atoms: _211  and  _213
REMARK   89  A    between atoms: _213  and  _214
REMARK   90  A    between atoms: _216  and  _218
REMARK   91  A    between atoms: _218  and  _219
REMARK   92  A    between atoms: _218  and  _221
REMARK   93  A    between atoms: _221  and  _222
REMARK   94  A    between atoms: _225  and  _227
REMARK   95  A    between atoms: _227  and  _228
REMARK   96  A    between atoms: _227  and  _230
REMARK   97  A    between atoms: _230  and  _231
REMARK   98  A    between atoms: _234  and  _236
REMARK   99  A    between atoms: _236  and  _237
REMARK  100  A    between atoms: _236  and  _239
REMARK  101  A    between atoms: _239  and  _240
REMARK  102  A    between atoms: _242  and  _244
REMARK  103  A    between atoms: _244  and  _245
REMARK  104  A    between atoms: _244  and  _247
REMARK  105  A    between atoms: _249  and  _251
REMARK  106  A    between atoms: _251  and  _252
REMARK  107  A    between atoms: _251  and  _254
REMARK  108  A    between atoms: _254  and  _255
REMARK  109  A    between atoms: _257  and  _259
REMARK  110  A    between atoms: _259  and  _260
REMARK  111  A    between atoms: _259  and  _262
REMARK  112  A    between atoms: _262  and  _263
REMARK  113  A    between atoms: _265  and  _267
REMARK  114  A    between atoms: _267  and  _268
REMARK  115  A    between atoms: _267  and  _270
REMARK  116  A    between atoms: _270  and  _271
REMARK  117  A    between atoms: _276  and  _278
REMARK  118  A    between atoms: _278  and  _279
REMARK  119  A    between atoms: _278  and  _281
REMARK  120  A    between atoms: _281  and  _282
REMARK  121  A    between atoms: _287  and  _288
REMARK  122  A    between atoms: _290  and  _292
REMARK  123  A    between atoms: _292  and  _293
REMARK  124  A    between atoms: _292  and  _295
REMARK  125  A    between atoms: _295  and  _296
REMARK  126  A    between atoms: _299  and  _301
REMARK  127  A    between atoms: _301  and  _302
REMARK  128  A    between atoms: _301  and  _304
REMARK  129  A    between atoms: _304  and  _305
REMARK  130  A    between atoms: _308  and  _310
REMARK  131  A    between atoms: _310  and  _311
REMARK  132  A    between atoms: _310  and  _313
REMARK  133  A    between atoms: _313  and  _314
REMARK  134  A    between atoms: _314  and  _315
REMARK  135  A    between atoms: _315  and  _316
REMARK  136  A    between atoms: _326  and  _327
REMARK  137  A    between atoms: _332  and  _334
REMARK  138  A    between atoms: _334  and  _335
REMARK  139  A    between atoms: _334  and  _337
REMARK  140  A    between atoms: _337  and  _338
REMARK  141  A    between atoms: _338  and  _339
REMARK  142  A    between atoms: _339  and  _340
REMARK  143  A    between atoms: _349  and  _351
REMARK  144  A    between atoms: _351  and  _352
REMARK  145  A    between atoms: _351  and  _354
REMARK  146  A    between atoms: _354  and  _355
REMARK  147  A    between atoms: _355  and  _356
REMARK  148  A    between atoms: _359  and  _361
REMARK  149  A    between atoms: _361  and  _362
REMARK  150  A    between atoms: _361  and  _364
REMARK  151  A    between atoms: _364  and  _365
REMARK  152  A    between atoms: _368  and  _370
REMARK  153  A    between atoms: _370  and  _371
REMARK  154  A    between atoms: _370  and  _373
REMARK  155  A    between atoms: _373  and  _374
REMARK  156  A    between atoms: _379  and  _381
REMARK  157  A    between atoms: _381  and  _382
REMARK  158  A    between atoms: _381  and  _384
REMARK  159  A    between atoms: _384  and  _385
REMARK  160  A    between atoms: _387  and  _389
REMARK  161  A    between atoms: _389  and  _390
REMARK  162  A    between atoms: _389  and  _392
REMARK  163  A    between atoms: _392  and  _393
REMARK  164  A    between atoms: _403  and  _405
REMARK  165  A    between atoms: _405  and  _406
REMARK  166  A    between atoms: _405  and  _408
REMARK  167  A    between atoms: _408  and  _409
REMARK  168  A    between atoms: _412  and  _414
REMARK  169  A    between atoms: _414  and  _415
REMARK  170  A    between atoms: _417  and  _419
REMARK  171  A    between atoms: _419  and  _420
REMARK  172  A    between atoms: _419  and  _422
REMARK  173  A    between atoms: _422  and  _423
REMARK  174  A    between atoms: _428  and  _430
REMARK  175  A    between atoms: _430  and  _431
REMARK  176  A    between atoms: _430  and  _433
REMARK  177  A    between atoms: _433  and  _434
REMARK  178  A    between atoms: _437  and  _439
REMARK  179  A    between atoms: _439  and  _440
REMARK  180  A    between atoms: _439  and  _442
REMARK  181  A    between atoms: _442  and  _443
REMARK  182  A    between atoms: _446  and  _448
REMARK  183  A    between atoms: _448  and  _449
REMARK  184  A    between atoms: _448  and  _451
REMARK  185  A    between atoms: _451  and  _452
REMARK  186  A    between atoms: _452  and  _453
REMARK  187  A    between atoms: _455  and  _457
REMARK  188  A    between atoms: _457  and  _458
REMARK  189  A    between atoms: _457  and  _460
REMARK  190  A    between atoms: _460  and  _461
REMARK  191  A    between atoms: _466  and  _467
REMARK  192  A    between atoms: _469  and  _471
REMARK  193  A    between atoms: _471  and  _472
REMARK  194  A    between atoms: _476  and  _477
REMARK  195  A    between atoms: _482  and  _484
REMARK  196  A    between atoms: _484  and  _485
REMARK  197  A    between atoms: _484  and  _487
REMARK  198  A    between atoms: _487  and  _488
REMARK  199  A    between atoms: _491  and  _493
REMARK  200  A    between atoms: _493  and  _494
REMARK  201  A    between atoms: _493  and  _496
REMARK  202  A    between atoms: _496  and  _497
REMARK  203  A    between atoms: _507  and  _509
REMARK  204  A    between atoms: _509  and  _510
REMARK  205  A    between atoms: _509  and  _512
REMARK  206  A    between atoms: _514  and  _516
REMARK  207  A    between atoms: _516  and  _517
REMARK  208  A    between atoms: _516  and  _519
REMARK  209  A    between atoms: _519  and  _520
REMARK  210  A    between atoms: _520  and  _521
REMARK  211  A    between atoms: _526  and  _528
REMARK  212  A    between atoms: _528  and  _529
REMARK  213  A    between atoms: _528  and  _531
REMARK  214  A    between atoms: _531  and  _532
REMARK  215  A    between atoms: _535  and  _537
REMARK  216  A    between atoms: _537  and  _538
REMARK  217  A    between atoms: _537  and  _540
REMARK  218  A    between atoms: _540  and  _541
REMARK  219  A    between atoms: _546  and  _547
REMARK  220  A    between atoms: _549  and  _551
REMARK  221  A    between atoms: _551  and  _552
REMARK  222  A    between atoms: _554  and  _556
REMARK  223  A    between atoms: _556  and  _557
REMARK  224  A    between atoms: _560  and  _562
REMARK  225  A    between atoms: _562  and  _563
REMARK  226  A    between atoms: _562  and  _565
REMARK  227  A    between atoms: _567  and  _569
REMARK  228  A    between atoms: _569  and  _570
REMARK  229  A    between atoms: _569  and  _572
REMARK  230  A    between atoms: _572  and  _573
REMARK  231  A    between atoms: _578  and  _579
REMARK  232  A    between atoms: _581  and  _583
REMARK  233  A    between atoms: _583  and  _584
REMARK  234  A    between atoms: _583  and  _586
REMARK  235  A    between atoms: _586  and  _587
REMARK  236  A    between atoms: _590  and  _592
REMARK  237  A    between atoms: _592  and  _593
REMARK  238  A    between atoms: _592  and  _595
REMARK  239  A    between atoms: _595  and  _596
REMARK  240  A    between atoms: _601  and  _603
REMARK  241  A    between atoms: _603  and  _604
REMARK  242  A    between atoms: _603  and  _606
REMARK  243  A    between atoms: _606  and  _607
REMARK  244  A    between atoms: _617  and  _619
REMARK  245  A    between atoms: _619  and  _620
REMARK  246  A    between atoms: _619  and  _622
REMARK  247  A    between atoms: _622  and  _623
REMARK  248  A    between atoms: _629  and  _631
REMARK  249  A    between atoms: _631  and  _632
REMARK  250  A    between atoms: _635  and  _637
REMARK  251  A    between atoms: _637  and  _638
REMARK  252  A    between atoms: _640  and  _642
REMARK  253  A    between atoms: _642  and  _643
REMARK  254  A    between atoms: _642  and  _645
REMARK  255  A    between atoms: _645  and  _646
REMARK  256  A    between atoms: _651  and  _652
REMARK  257  A    between atoms: _654  and  _656
REMARK  258  A    between atoms: _656  and  _657
REMARK  259  A    between atoms: _656  and  _659
REMARK  260  A    between atoms: _659  and  _660
REMARK  261  A    between atoms: _662  and  _664
REMARK  262  A    between atoms: _664  and  _665
REMARK                            x       y       z     vdW  Elec       q    Type
REMARK                         _______ _______ _______ _____ _____    ______ ____
ROOT
ATOM      1  CA  LEU A   1     -20.557 -20.494  38.455  0.00  0.00    +0.133 C 
ENDROOT
BRANCH   1   2
ATOM      2  N   LEU A   1     -21.967 -20.797  38.152  0.00  0.00    -0.239 NA
ATOM      3  H   LEU A   1     -22.667 -20.028  38.151  0.00  0.00    +0.142 HD
ENDBRANCH   1   2
BRANCH   1   4
ATOM      4  C   LEU A   1     -20.103 -21.116  39.755  0.00  0.00    +0.224 C 
ATOM      5  O   LEU A   1     -19.041 -21.711  39.830  0.00  0.00    -0.287 OA
ENDBRANCH   1   4
BRANCH   1   6
ATOM      6  CB  LEU A   1     -20.344 -18.984  38.521  0.00  0.00    +0.025 C 
BRANCH   6   7
ATOM      7  CG  LEU A   1     -20.426 -18.239  37.202  0.00  0.00    +0.002 C 
ATOM      8  CD2 LEU A   1     -20.605 -16.737  37.440  0.00  0.00    +0.000 C 
ATOM      9  CD1 LEU A   1     -19.193 -18.530  36.388  0.00  0.00    +0.000 C 
ENDBRANCH   6   7
ENDBRANCH   1   6
TORSDOF 4
REMARK  Name = ../refined-set-2016/3hky/3hky_pocket.pdb
REMARK  262 active torsions:
REMARK  status: ('A' for Active; 'I' for Inactive)
REMARK    1  A    between atoms: _1  and  _3
REMARK    2  A    between atoms: _3  and  _4
REMARK    3  A    between atoms: _3  and  _6
REMARK    4  A    between atoms: _6  and  _7
REMARK    5  A    between atoms: _7  and  _8
REMARK    6  A    between atoms: _8  and  _9
REMARK    7  A    between atoms: _9  and  _10
REMARK    8  A    between atoms: _14  and  _16
REMARK    9  A    between atoms: _16  and  _17
REMARK   10  A    between atoms: _16  and  _19
REMARK   11  A    between atoms: _19  and  _20
REMARK   12  A    between atoms: _20  and  _21
REMARK   13  A    between atoms: _24  and  _26
REMARK   14  A    between atoms: _26  and  _27
REMARK   15  A    between atoms: _26  and  _29
REMARK   16  A    between atoms: _29  and  _30
REMARK   17  A    between atoms: _30  and  _31
REMARK   18  A    between atoms: _31  and  _32
REMARK   19  A    between atoms: _41  and  _43
REMARK   20  A    between atoms: _43  and  _44
REMARK   21  A    between atoms: _46  and  _48
REMARK   22  A    between atoms: _48  and  _49
REMARK   23  A    between atoms: _48  and  _51
REMARK   24  A    between atoms: _51  and  _52
REMARK   25  A    between atoms: _58  and  _60
REMARK   26  A    between atoms: _60  and  _61
REMARK   27  A    between atoms: _60  and  _63
REMARK   28  A    between atoms: _63  and  _64
REMARK   29  A    between atoms: _69  and  _70
REMARK   30  A    between atoms: _72  and  _74
REMARK   31  A    between atoms: _74  and  _75
REMARK   32  A    between atoms: _74  and  _77
REMARK   33  A    between atoms: _77  and  _78
REMARK   34  A    between atoms: _81  and  _82
REMARK   35  A    between atoms: _87  and  _89
REMARK   36  A    between atoms: _89  and  _90
REMARK   37  A    between atoms: _89  and  _92
REMARK   38  A    between atoms: _92  and  _93
REMARK   39  A    between atoms: _93  and  _94
REMARK   40  A    between atoms: _94  and  _95
REMARK   41  A    between atoms: _95  and  _96
REMARK   42  A    between atoms: _100  and  _102
REMARK   43  A    between atoms: _102  and  _103
REMARK   44  A    between atoms: _102  and  _105
REMARK   45  A    between atoms: _105  and  _106
REMARK   46  A    between atoms: _106  and  _107
REMARK   47  A    between atoms: _112  and  _114
REMARK   48  A    between atoms: _114  and  _115
REMARK   49  A    between atoms: _114  and  _117
REMARK   50  A    between atoms: _117  and  _118
REMARK   51  A    between atoms: _118  and  _119
REMARK   52  A    between atoms: _119  and  _120
REMARK   53  A    between atoms: _129  and  _131
REMARK   54  A    between atoms: _131  and  _132
REMARK   55  A    between atoms: _131  and  _134
REMARK   56  A    between atoms: _137  and  _139
REMARK   57  A    between atoms: _139  and  _140
REMARK   58  A    between atoms: _139  and  _142
REMARK   59  A    between atoms: _142  and  _143
REMARK   60  A    between atoms: _146  and  _148
REMARK   61  A    between atoms: _148  and  _149
REMARK   62  A    between atoms: _148  and  _151
REMARK   63  A    between atoms: _151  and  _152
REMARK   64  A    between atoms: _155  and  _157
REMARK   65  A    between atoms: _157  and  _158
REMARK   66  A    between atoms: _157  and  _160
REMARK   67  A    between atoms: _160  and  _161
REMARK   68  A    between atoms: _163  and  _165
REMARK   69  A    between atoms: _165  and  _166
REMARK   70  A    between atoms: _165  and  _168
REMARK   71  A    between atoms: _168  and  _169
REMARK   72  A    between atoms: _172  and  _174
REMARK   73  A    between atoms: _174  and  _175
REMARK   74  A    between atoms: _174  and  _177
REMARK   75  A    between atoms: _177  and  _178
REMARK   76  A    between atoms: _180  and  _182
REMARK   77  A    between atoms: _182  and  _183
REMARK   78  A    between atoms: _182  and  _185
REMARK   79  A    between atoms: _185  and  _186
REMARK   80  A    between atoms: _191  and  _193
REMARK   81  A    between atoms: _193  and  _194
REMARK   82  A    between atoms: _193  and  _196
REMARK   83  A    between atoms: _196  and  _197
REMARK   84  A    between atoms: _200  and  _202
REMARK   85  A    between atoms: _202  and  _203
REMARK   86  A    between atoms: _202  and  _205
REMARK   87  A    between atoms: _205  and  _206
REMARK   88  A    between atoms: _211  and  _213
REMARK   89  A    between atoms: _213  and  _214
REMARK   90  A    between atoms: _216  and  _218
REMARK   91  A    between atoms: _218  and  _219
REMARK   92  A    between atoms: _218  and  _221
REMARK   93  A    between atoms: _221  and  _222
REMARK   94  A    between atoms: _225  and  _227
REMARK   95  A    between atoms: _227  and  _228
REMARK   96  A    between atoms: _227  and  _230
REMARK   97  A    between atoms: _230  and  _231
REMARK   98  A    between atoms: _234  and  _236
REMARK   99  A    between atoms: _236  and  _237
REMARK  100  A    between atoms: _236  and  _239
REMARK  101  A    between atoms: _239  and  _240
REMARK  102  A    between atoms: _242  and  _244
REMARK  103  A    between atoms: _244  and  _245
REMARK  104  A    between atoms: _244  and  _247
REMARK  105  A    between atoms: _249  and  _251
REMARK  106  A    between atoms: _251  and  _252
REMARK  107  A    between atoms: _251  and  _254
REMARK  108  A    between atoms: _254  and  _255
REMARK  109  A    between atoms: _257  and  _259
REMARK  110  A    between atoms: _259  and  _260
REMARK  111  A    between atoms: _259  and  _262
REMARK  112  A    between atoms: _262  and  _263
REMARK  113  A    between atoms: _265  and  _267
REMARK  114  A    between atoms: _267  and  _268
REMARK  115  A    between atoms: _267  and  _270
REMARK  116  A    between atoms: _270  and  _271
REMARK  117  A    between atoms: _276  and  _278
REMARK  118  A    between atoms: _278  and  _279
REMARK  119  A    between atoms: _278  and  _281
REMARK  120  A    between atoms: _281  and  _282
REMARK  121  A    between atoms: _287  and  _288
REMARK  122  A    between atoms: _290  and  _292
REMARK  123  A    between atoms: _292  and  _293
REMARK  124  A    between atoms: _292  and  _295
REMARK  125  A    between atoms: _295  and  _296
REMARK  126  A    between atoms: _299  and  _301
REMARK  127  A    between atoms: _301  and  _302
REMARK  128  A    between atoms: _301  and  _304
REMARK  129  A    between atoms: _304  and  _305
REMARK  130  A    between atoms: _308  and  _310
REMARK  131  A    between atoms: _310  and  _311
REMARK  132  A    between atoms: _310  and  _313
REMARK  133  A    between atoms: _313  and  _314
REMARK  134  A    between atoms: _314  and  _315
REMARK  135  A    between atoms: _315  and  _316
REMARK  136  A    between atoms: _326  and  _327
REMARK  137  A    between atoms: _332  and  _334
REMARK  138  A    between atoms: _334  and  _335
REMARK  139  A    between atoms: _334  and  _337
REMARK  140  A    between atoms: _337  and  _338
REMARK  141  A    between atoms: _338  and  _339
REMARK  142  A    between atoms: _339  and  _340
REMARK  143  A    between atoms: _349  and  _351
REMARK  144  A    between atoms: _351  and  _352
REMARK  145  A    between atoms: _351  and  _354
REMARK  146  A    between atoms: _354  and  _355
REMARK  147  A    between atoms: _355  and  _356
REMARK  148  A    between atoms: _359  and  _361
REMARK  149  A    between atoms: _361  and  _362
REMARK  150  A    between atoms: _361  and  _364
REMARK  151  A    between atoms: _364  and  _365
REMARK  152  A    between atoms: _368  and  _370
REMARK  153  A    between atoms: _370  and  _371
REMARK  154  A    between atoms: _370  and  _373
REMARK  155  A    between atoms: _373  and  _374
REMARK  156  A    between atoms: _379  and  _381
REMARK  157  A    between atoms: _381  and  _382
REMARK  158  A    between atoms: _381  and  _384
REMARK  159  A    between atoms: _384  and  _385
REMARK  160  A    between atoms: _387  and  _389
REMARK  161  A    between atoms: _389  and  _390
REMARK  162  A    between atoms: _389  and  _392
REMARK  163  A    between atoms: _392  and  _393
REMARK  164  A    between atoms: _403  and  _405
REMARK  165  A    between atoms: _405  and  _406
REMARK  166  A    between atoms: _405  and  _408
REMARK  167  A    between atoms: _408  and  _409
REMARK  168  A    between atoms: _412  and  _414
REMARK  169  A    between atoms: _414  and  _415
REMARK  170  A    between atoms: _417  and  _419
REMARK  171  A    between atoms: _419  and  _420
REMARK  172  A    between atoms: _419  and  _422
REMARK  173  A    between atoms: _422  and  _423
REMARK  174  A    between atoms: _428  and  _430
REMARK  175  A    between atoms: _430  and  _431
REMARK  176  A    between atoms: _430  and  _433
REMARK  177  A    between atoms: _433  and  _434
REMARK  178  A    between atoms: _437  and  _439
REMARK  179  A    between atoms: _439  and  _440
REMARK  180  A    between atoms: _439  and  _442
REMARK  181  A    between atoms: _442  and  _443
REMARK  182  A    between atoms: _446  and  _448
REMARK  183  A    between atoms: _448  and  _449
REMARK  184  A    between atoms: _448  and  _451
REMARK  185  A    between atoms: _451  and  _452
REMARK  186  A    between atoms: _452  and  _453
REMARK  187  A    between atoms: _455  and  _457
REMARK  188  A    between atoms: _457  and  _458
REMARK  189  A    between atoms: _457  and  _460
REMARK  190  A    between atoms: _460  and  _461
REMARK  191  A    between atoms: _466  and  _467
REMARK  192  A    between atoms: _469  and  _471
REMARK  193  A    between atoms: _471  and  _472
REMARK  194  A    between atoms: _476  and  _477
REMARK  195  A    between atoms: _482  and  _484
REMARK  196  A    between atoms: _484  and  _485
REMARK  197  A    between atoms: _484  and  _487
REMARK  198  A    between atoms: _487  and  _488
REMARK  199  A    between atoms: _491  and  _493
REMARK  200  A    between atoms: _493  and  _494
REMARK  201  A    between atoms: _493  and  _496
REMARK  202  A    between atoms: _496  and  _497
REMARK  203  A    between atoms: _507  and  _509
REMARK  204  A    between atoms: _509  and  _510
REMARK  205  A    between atoms: _509  and  _512
REMARK  206  A    between atoms: _514  and  _516
REMARK  207  A    between atoms: _516  and  _517
REMARK  208  A    between atoms: _516  and  _519
REMARK  209  A    between atoms: _519  and  _520
REMARK  210  A    between atoms: _520  and  _521
REMARK  211  A    between atoms: _526  and  _528
REMARK  212  A    between atoms: _528  and  _529
REMARK  213  A    between atoms: _528  and  _531
REMARK  214  A    between atoms: _531  and  _532
REMARK  215  A    between atoms: _535  and  _537
REMARK  216  A    between atoms: _537  and  _538
REMARK  217  A    between atoms: _537  and  _540
REMARK  218  A    between atoms: _540  and  _541
REMARK  219  A    between atoms: _546  and  _547
REMARK  220  A    between atoms: _549  and  _551
REMARK  221  A    between atoms: _551  and  _552
REMARK  222  A    between atoms: _554  and  _556
REMARK  223  A    between atoms: _556  and  _557
REMARK  224  A    between atoms: _560  and  _562
REMARK  225  A    between atoms: _562  and  _563
REMARK  226  A    between atoms: _562  and  _565
REMARK  227  A    between atoms: _567  and  _569
REMARK  228  A    between atoms: _569  and  _570
REMARK  229  A    between atoms: _569  and  _572
REMARK  230  A    between atoms: _572  and  _573
REMARK  231  A    between atoms: _578  and  _579
REMARK  232  A    between atoms: _581  and  _583
REMARK  233  A    between atoms: _583  and  _584
REMARK  234  A    between atoms: _583  and  _586
REMARK  235  A    between atoms: _586  and  _587
REMARK  236  A    between atoms: _590  and  _592
REMARK  237  A    between atoms: _592  and  _593
REMARK  238  A    between atoms: _592  and  _595
REMARK  239  A    between atoms: _595  and  _596
REMARK  240  A    between atoms: _601  and  _603
REMARK  241  A    between atoms: _603  and  _604
REMARK  242  A    between atoms: _603  and  _606
REMARK  243  A    between atoms: _606  and  _607
REMARK  244  A    between atoms: _617  and  _619
REMARK  245  A    between atoms: _619  and  _620
REMARK  246  A    between atoms: _619  and  _622
REMARK  247  A    between atoms: _622  and  _623
REMARK  248  A    between atoms: _629  and  _631
REMARK  249  A    between atoms: _631  and  _632
REMARK  250  A    between atoms: _635  and  _637
REMARK  251  A    between atoms: _637  and  _638
REMARK  252  A    between atoms: _640  and  _642
REMARK  253  A    between atoms: _642  and  _643
REMARK  254  A    between atoms: _642  and  _645
REMARK  255  A    between atoms: _645  and  _646
REMARK  256  A    between atoms: _651  and  _652
REMARK  257  A    between atoms: _654  and  _656
REMARK  258  A    between atoms: _656  and  _657
REMARK  259  A    between atoms: _656  and  _659
REMARK  260  A    between atoms: _659  and  _660
REMARK  261  A    between atoms: _662  and  _664
REMARK  262  A    between atoms: _664  and  _665
REMARK                            x       y       z     vdW  Elec       q    Type
REMARK                         _______ _______ _______ _____ _____    ______ ____
ROOT
ATOM      1  CA  ASP A   1     -15.279  -7.878  16.419  0.00  0.00    +0.144 C 
ENDROOT
BRANCH   1   2
ATOM      2  N   ASP A   1     -14.559  -8.026  17.699  0.00  0.00    -0.239 NA
ATOM      3  H   ASP A   1     -14.765  -7.354  18.465  0.00  0.00    +0.142 HD
ENDBRANCH   1   2
BRANCH   1   4
ATOM      4  C   ASP A   1     -14.353  -7.712  15.236  0.00  0.00    +0.225 C 
ATOM      5  O   ASP A   1     -14.635  -8.233  14.173  0.00  0.00    -0.287 OA
ENDBRANCH   1   4
BRANCH   1   6
ATOM      6  CB  ASP A   1     -16.246  -6.687  16.439  0.00  0.00    +0.139 C 
BRANCH   6   7
ATOM      7  CG  ASP A   1     -17.592  -7.008  17.069  0.00  0.00    +0.367 C 
ATOM      8  OD2 ASP A   1     -17.804  -8.138  17.567  0.00  0.00    -0.246 OA
ATOM      9  OD1 ASP A   1     -18.437  -6.088  17.083  0.00  0.00    -0.246 OA
ENDBRANCH   6   7
ENDBRANCH   1   6
TORSDOF 4
REMARK  Name = ../refined-set-2016/3hky/3hky_pocket.pdb
REMARK  262 active torsions:
REMARK  status: ('A' for Active; 'I' for Inactive)
REMARK    1  A    between atoms: _1  and  _3
REMARK    2  A    between atoms: _3  and  _4
REMARK    3  A    between atoms: _3  and  _6
REMARK    4  A    between atoms: _6  and  _7
REMARK    5  A    between atoms: _7  and  _8
REMARK    6  A    between atoms: _8  and  _9
REMARK    7  A    between atoms: _9  and  _10
REMARK    8  A    between atoms: _14  and  _16
REMARK    9  A    between atoms: _16  and  _17
REMARK   10  A    between atoms: _16  and  _19
REMARK   11  A    between atoms: _19  and  _20
REMARK   12  A    between atoms: _20  and  _21
REMARK   13  A    between atoms: _24  and  _26
REMARK   14  A    between atoms: _26  and  _27
REMARK   15  A    between atoms: _26  and  _29
REMARK   16  A    between atoms: _29  and  _30
REMARK   17  A    between atoms: _30  and  _31
REMARK   18  A    between atoms: _31  and  _32
REMARK   19  A    between atoms: _41  and  _43
REMARK   20  A    between atoms: _43  and  _44
REMARK   21  A    between atoms: _46  and  _48
REMARK   22  A    between atoms: _48  and  _49
REMARK   23  A    between atoms: _48  and  _51
REMARK   24  A    between atoms: _51  and  _52
REMARK   25  A    between atoms: _58  and  _60
REMARK   26  A    between atoms: _60  and  _61
REMARK   27  A    between atoms: _60  and  _63
REMARK   28  A    between atoms: _63  and  _64
REMARK   29  A    between atoms: _69  and  _70
REMARK   30  A    between atoms: _72  and  _74
REMARK   31  A    between atoms: _74  and  _75
REMARK   32  A    between atoms: _74  and  _77
REMARK   33  A    between atoms: _77  and  _78
REMARK   34  A    between atoms: _81  and  _82
REMARK   35  A    between atoms: _87  and  _89
REMARK   36  A    between atoms: _89  and  _90
REMARK   37  A    between atoms: _89  and  _92
REMARK   38  A    between atoms: _92  and  _93
REMARK   39  A    between atoms: _93  and  _94
REMARK   40  A    between atoms: _94  and  _95
REMARK   41  A    between atoms: _95  and  _96
REMARK   42  A    between atoms: _100  and  _102
REMARK   43  A    between atoms: _102  and  _103
REMARK   44  A    between atoms: _102  and  _105
REMARK   45  A    between atoms: _105  and  _106
REMARK   46  A    between atoms: _106  and  _107
REMARK   47  A    between atoms: _112  and  _114
REMARK   48  A    between atoms: _114  and  _115
REMARK   49  A    between atoms: _114  and  _117
REMARK   50  A    between atoms: _117  and  _118
REMARK   51  A    between atoms: _118  and  _119
REMARK   52  A    between atoms: _119  and  _120
REMARK   53  A    between atoms: _129  and  _131
REMARK   54  A    between atoms: _131  and  _132
REMARK   55  A    between atoms: _131  and  _134
REMARK   56  A    between atoms: _137  and  _139
REMARK   57  A    between atoms: _139  and  _140
REMARK   58  A    between atoms: _139  and  _142
REMARK   59  A    between atoms: _142  and  _143
REMARK   60  A    between atoms: _146  and  _148
REMARK   61  A    between atoms: _148  and  _149
REMARK   62  A    between atoms: _148  and  _151
REMARK   63  A    between atoms: _151  and  _152
REMARK   64  A    between atoms: _155  and  _157
REMARK   65  A    between atoms: _157  and  _158
REMARK   66  A    between atoms: _157  and  _160
REMARK   67  A    between atoms: _160  and  _161
REMARK   68  A    between atoms: _163  and  _165
REMARK   69  A    between atoms: _165  and  _166
REMARK   70  A    between atoms: _165  and  _168
REMARK   71  A    between atoms: _168  and  _169
REMARK   72  A    between atoms: _172  and  _174
REMARK   73  A    between atoms: _174  and  _175
REMARK   74  A    between atoms: _174  and  _177
REMARK   75  A    between atoms: _177  and  _178
REMARK   76  A    between atoms: _180  and  _182
REMARK   77  A    between atoms: _182  and  _183
REMARK   78  A    between atoms: _182  and  _185
REMARK   79  A    between atoms: _185  and  _186
REMARK   80  A    between atoms: _191  and  _193
REMARK   81  A    between atoms: _193  and  _194
REMARK   82  A    between atoms: _193  and  _196
REMARK   83  A    between atoms: _196  and  _197
REMARK   84  A    between atoms: _200  and  _202
REMARK   85  A    between atoms: _202  and  _203
REMARK   86  A    between atoms: _202  and  _205
REMARK   87  A    between atoms: _205  and  _206
REMARK   88  A    between atoms: _211  and  _213
REMARK   89  A    between atoms: _213  and  _214
REMARK   90  A    between atoms: _216  and  _218
REMARK   91  A    between atoms: _218  and  _219
REMARK   92  A    between atoms: _218  and  _221
REMARK   93  A    between atoms: _221  and  _222
REMARK   94  A    between atoms: _225  and  _227
REMARK   95  A    between atoms: _227  and  _228
REMARK   96  A    between atoms: _227  and  _230
REMARK   97  A    between atoms: _230  and  _231
REMARK   98  A    between atoms: _234  and  _236
REMARK   99  A    between atoms: _236  and  _237
REMARK  100  A    between atoms: _236  and  _239
REMARK  101  A    between atoms: _239  and  _240
REMARK  102  A    between atoms: _242  and  _244
REMARK  103  A    between atoms: _244  and  _245
REMARK  104  A    between atoms: _244  and  _247
REMARK  105  A    between atoms: _249  and  _251
REMARK  106  A    between atoms: _251  and  _252
REMARK  107  A    between atoms: _251  and  _254
REMARK  108  A    between atoms: _254  and  _255
REMARK  109  A    between atoms: _257  and  _259
REMARK  110  A    between atoms: _259  and  _260
REMARK  111  A    between atoms: _259  and  _262
REMARK  112  A    between atoms: _262  and  _263
REMARK  113  A    between atoms: _265  and  _267
REMARK  114  A    between atoms: _267  and  _268
REMARK  115  A    between atoms: _267  and  _270
REMARK  116  A    between atoms: _270  and  _271
REMARK  117  A    between atoms: _276  and  _278
REMARK  118  A    between atoms: _278  and  _279
REMARK  119  A    between atoms: _278  and  _281
REMARK  120  A    between atoms: _281  and  _282
REMARK  121  A    between atoms: _287  and  _288
REMARK  122  A    between atoms: _290  and  _292
REMARK  123  A    between atoms: _292  and  _293
REMARK  124  A    between atoms: _292  and  _295
REMARK  125  A    between atoms: _295  and  _296
REMARK  126  A    between atoms: _299  and  _301
REMARK  127  A    between atoms: _301  and  _302
REMARK  128  A    between atoms: _301  and  _304
REMARK  129  A    between atoms: _304  and  _305
REMARK  130  A    between atoms: _308  and  _310
REMARK  131  A    between atoms: _310  and  _311
REMARK  132  A    between atoms: _310  and  _313
REMARK  133  A    between atoms: _313  and  _314
REMARK  134  A    between atoms: _314  and  _315
REMARK  135  A    between atoms: _315  and  _316
REMARK  136  A    between atoms: _326  and  _327
REMARK  137  A    between atoms: _332  and  _334
REMARK  138  A    between atoms: _334  and  _335
REMARK  139  A    between atoms: _334  and  _337
REMARK  140  A    between atoms: _337  and  _338
REMARK  141  A    between atoms: _338  and  _339
REMARK  142  A    between atoms: _339  and  _340
REMARK  143  A    between atoms: _349  and  _351
REMARK  144  A    between atoms: _351  and  _352
REMARK  145  A    between atoms: _351  and  _354
REMARK  146  A    between atoms: _354  and  _355
REMARK  147  A    between atoms: _355  and  _356
REMARK  148  A    between atoms: _359  and  _361
REMARK  149  A    between atoms: _361  and  _362
REMARK  150  A    between atoms: _361  and  _364
REMARK  151  A    between atoms: _364  and  _365
REMARK  152  A    between atoms: _368  and  _370
REMARK  153  A    between atoms: _370  and  _371
REMARK  154  A    between atoms: _370  and  _373
REMARK  155  A    between atoms: _373  and  _374
REMARK  156  A    between atoms: _379  and  _381
REMARK  157  A    between atoms: _381  and  _382
REMARK  158  A    between atoms: _381  and  _384
REMARK  159  A    between atoms: _384  and  _385
REMARK  160  A    between atoms: _387  and  _389
REMARK  161  A    between atoms: _389  and  _390
REMARK  162  A    between atoms: _389  and  _392
REMARK  163  A    between atoms: _392  and  _393
REMARK  164  A    between atoms: _403  and  _405
REMARK  165  A    between atoms: _405  and  _406
REMARK  166  A    between atoms: _405  and  _408
REMARK  167  A    between atoms: _408  and  _409
REMARK  168  A    between atoms: _412  and  _414
REMARK  169  A    between atoms: _414  and  _415
REMARK  170  A    between atoms: _417  and  _419
REMARK  171  A    between atoms: _419  and  _420
REMARK  172  A    between atoms: _419  and  _422
REMARK  173  A    between atoms: _422  and  _423
REMARK  174  A    between atoms: _428  and  _430
REMARK  175  A    between atoms: _430  and  _431
REMARK  176  A    between atoms: _430  and  _433
REMARK  177  A    between atoms: _433  and  _434
REMARK  178  A    between atoms: _437  and  _439
REMARK  179  A    between atoms: _439  and  _440
REMARK  180  A    between atoms: _439  and  _442
REMARK  181  A    between atoms: _442  and  _443
REMARK  182  A    between atoms: _446  and  _448
REMARK  183  A    between atoms: _448  and  _449
REMARK  184  A    between atoms: _448  and  _451
REMARK  185  A    between atoms: _451  and  _452
REMARK  186  A    between atoms: _452  and  _453
REMARK  187  A    between atoms: _455  and  _457
REMARK  188  A    between atoms: _457  and  _458
REMARK  189  A    between atoms: _457  and  _460
REMARK  190  A    between atoms: _460  and  _461
REMARK  191  A    between atoms: _466  and  _467
REMARK  192  A    between atoms: _469  and  _471
REMARK  193  A    between atoms: _471  and  _472
REMARK  194  A    between atoms: _476  and  _477
REMARK  195  A    between atoms: _482  and  _484
REMARK  196  A    between atoms: _484  and  _485
REMARK  197  A    between atoms: _484  and  _487
REMARK  198  A    between atoms: _487  and  _488
REMARK  199  A    between atoms: _491  and  _493
REMARK  200  A    between atoms: _493  and  _494
REMARK  201  A    between atoms: _493  and  _496
REMARK  202  A    between atoms: _496  and  _497
REMARK  203  A    between atoms: _507  and  _509
REMARK  204  A    between atoms: _509  and  _510
REMARK  205  A    between atoms: _509  and  _512
REMARK  206  A    between atoms: _514  and  _516
REMARK  207  A    between atoms: _516  and  _517
REMARK  208  A    between atoms: _516  and  _519
REMARK  209  A    between atoms: _519  and  _520
REMARK  210  A    between atoms: _520  and  _521
REMARK  211  A    between atoms: _526  and  _528
REMARK  212  A    between atoms: _528  and  _529
REMARK  213  A    between atoms: _528  and  _531
REMARK  214  A    between atoms: _531  and  _532
REMARK  215  A    between atoms: _535  and  _537
REMARK  216  A    between atoms: _537  and  _538
REMARK  217  A    between atoms: _537  and  _540
REMARK  218  A    between atoms: _540  and  _541
REMARK  219  A    between atoms: _546  and  _547
REMARK  220  A    between atoms: _549  and  _551
REMARK  221  A    between atoms: _551  and  _552
REMARK  222  A    between atoms: _554  and  _556
REMARK  223  A    between atoms: _556  and  _557
REMARK  224  A    between atoms: _560  and  _562
REMARK  225  A    between atoms: _562  and  _563
REMARK  226  A    between atoms: _562  and  _565
REMARK  227  A    between atoms: _567  and  _569
REMARK  228  A    between atoms: _569  and  _570
REMARK  229  A    between atoms: _569  and  _572
REMARK  230  A    between atoms: _572  and  _573
REMARK  231  A    between atoms: _578  and  _579
REMARK  232  A    between atoms: _581  and  _583
REMARK  233  A    between atoms: _583  and  _584
REMARK  234  A    between atoms: _583  and  _586
REMARK  235  A    between atoms: _586  and  _587
REMARK  236  A    between atoms: _590  and  _592
REMARK  237  A    between atoms: _592  and  _593
REMARK  238  A    between atoms: _592  and  _595
REMARK  239  A    between atoms: _595  and  _596
REMARK  240  A    between atoms: _601  and  _603
REMARK  241  A    between atoms: _603  and  _604
REMARK  242  A    between atoms: _603  and  _606
REMARK  243  A    between atoms: _606  and  _607
REMARK  244  A    between atoms: _617  and  _619
REMARK  245  A    between atoms: _619  and  _620
REMARK  246  A    between atoms: _619  and  _622
REMARK  247  A    between atoms: _622  and  _623
REMARK  248  A    between atoms: _629  and  _631
REMARK  249  A    between atoms: _631  and  _632
REMARK  250  A    between atoms: _635  and  _637
REMARK  251  A    between atoms: _637  and  _638
REMARK  252  A    between atoms: _640  and  _642
REMARK  253  A    between atoms: _642  and  _643
REMARK  254  A    between atoms: _642  and  _645
REMARK  255  A    between atoms: _645  and  _646
REMARK  256  A    between atoms: _651  and  _652
REMARK  257  A    between atoms: _654  and  _656
REMARK  258  A    between atoms: _656  and  _657
REMARK  259  A    between atoms: _656  and  _659
REMARK  260  A    between atoms: _659  and  _660
REMARK  261  A    between atoms: _662  and  _664
REMARK  262  A    between atoms: _664  and  _665
REMARK                            x       y       z     vdW  Elec       q    Type
REMARK                         _______ _______ _______ _____ _____    ______ ____
ROOT
ATOM      1  CA  SER A   1     -21.781  -4.769  15.597  0.00  0.00    +0.163 C 
ENDROOT
BRANCH   1   2
ATOM      2  N   SER A   1     -21.295  -4.760  14.246  0.00  0.00    -0.237 NA
ATOM      3  H   SER A   1     -20.947  -3.862  13.854  0.00  0.00    +0.142 HD
ENDBRANCH   1   2
BRANCH   1   4
ATOM      4  CB  SER A   1     -23.283  -4.806  15.586  0.00  0.00    +0.227 C 
ATOM      5  OG  SER A   1     -23.871  -5.331  16.512  0.00  0.00    -0.287 OA
ENDBRANCH   1   4
BRANCH   1   6
ATOM      6  C   SER A   1     -21.370  -3.503  16.343  0.00  0.00    +0.162 C 
BRANCH   6   7
ATOM      7  O   SER A   1     -21.901  -2.353  15.691  0.00  0.00    -0.380 OA
ATOM      8  H   SER A   1     -21.554  -2.311  14.765  0.00  0.00    +0.211 HD
ENDBRANCH   6   7
ENDBRANCH   1   6
TORSDOF 4
REMARK  Name = ../refined-set-2016/3hky/3hky_pocket.pdb
REMARK  262 active torsions:
REMARK  status: ('A' for Active; 'I' for Inactive)
REMARK    1  A    between atoms: _1  and  _3
REMARK    2  A    between atoms: _3  and  _4
REMARK    3  A    between atoms: _3  and  _6
REMARK    4  A    between atoms: _6  and  _7
REMARK    5  A    between atoms: _7  and  _8
REMARK    6  A    between atoms: _8  and  _9
REMARK    7  A    between atoms: _9  and  _10
REMARK    8  A    between atoms: _14  and  _16
REMARK    9  A    between atoms: _16  and  _17
REMARK   10  A    between atoms: _16  and  _19
REMARK   11  A    between atoms: _19  and  _20
REMARK   12  A    between atoms: _20  and  _21
REMARK   13  A    between atoms: _24  and  _26
REMARK   14  A    between atoms: _26  and  _27
REMARK   15  A    between atoms: _26  and  _29
REMARK   16  A    between atoms: _29  and  _30
REMARK   17  A    between atoms: _30  and  _31
REMARK   18  A    between atoms: _31  and  _32
REMARK   19  A    between atoms: _41  and  _43
REMARK   20  A    between atoms: _43  and  _44
REMARK   21  A    between atoms: _46  and  _48
REMARK   22  A    between atoms: _48  and  _49
REMARK   23  A    between atoms: _48  and  _51
REMARK   24  A    between atoms: _51  and  _52
REMARK   25  A    between atoms: _58  and  _60
REMARK   26  A    between atoms: _60  and  _61
REMARK   27  A    between atoms: _60  and  _63
REMARK   28  A    between atoms: _63  and  _64
REMARK   29  A    between atoms: _69  and  _70
REMARK   30  A    between atoms: _72  and  _74
REMARK   31  A    between atoms: _74  and  _75
REMARK   32  A    between atoms: _74  and  _77
REMARK   33  A    between atoms: _77  and  _78
REMARK   34  A    between atoms: _81  and  _82
REMARK   35  A    between atoms: _87  and  _89
REMARK   36  A    between atoms: _89  and  _90
REMARK   37  A    between atoms: _89  and  _92
REMARK   38  A    between atoms: _92  and  _93
REMARK   39  A    between atoms: _93  and  _94
REMARK   40  A    between atoms: _94  and  _95
REMARK   41  A    between atoms: _95  and  _96
REMARK   42  A    between atoms: _100  and  _102
REMARK   43  A    between atoms: _102  and  _103
REMARK   44  A    between atoms: _102  and  _105
REMARK   45  A    between atoms: _105  and  _106
REMARK   46  A    between atoms: _106  and  _107
REMARK   47  A    between atoms: _112  and  _114
REMARK   48  A    between atoms: _114  and  _115
REMARK   49  A    between atoms: _114  and  _117
REMARK   50  A    between atoms: _117  and  _118
REMARK   51  A    between atoms: _118  and  _119
REMARK   52  A    between atoms: _119  and  _120
REMARK   53  A    between atoms: _129  and  _131
REMARK   54  A    between atoms: _131  and  _132
REMARK   55  A    between atoms: _131  and  _134
REMARK   56  A    between atoms: _137  and  _139
REMARK   57  A    between atoms: _139  and  _140
REMARK   58  A    between atoms: _139  and  _142
REMARK   59  A    between atoms: _142  and  _143
REMARK   60  A    between atoms: _146  and  _148
REMARK   61  A    between atoms: _148  and  _149
REMARK   62  A    between atoms: _148  and  _151
REMARK   63  A    between atoms: _151  and  _152
REMARK   64  A    between atoms: _155  and  _157
REMARK   65  A    between atoms: _157  and  _158
REMARK   66  A    between atoms: _157  and  _160
REMARK   67  A    between atoms: _160  and  _161
REMARK   68  A    between atoms: _163  and  _165
REMARK   69  A    between atoms: _165  and  _166
REMARK   70  A    between atoms: _165  and  _168
REMARK   71  A    between atoms: _168  and  _169
REMARK   72  A    between atoms: _172  and  _174
REMARK   73  A    between atoms: _174  and  _175
REMARK   74  A    between atoms: _174  and  _177
REMARK   75  A    between atoms: _177  and  _178
REMARK   76  A    between atoms: _180  and  _182
REMARK   77  A    between atoms: _182  and  _183
REMARK   78  A    between atoms: _182  and  _185
REMARK   79  A    between atoms: _185  and  _186
REMARK   80  A    between atoms: _191  and  _193
REMARK   81  A    between atoms: _193  and  _194
REMARK   82  A    between atoms: _193  and  _196
REMARK   83  A    between atoms: _196  and  _197
REMARK   84  A    between atoms: _200  and  _202
REMARK   85  A    between atoms: _202  and  _203
REMARK   86  A    between atoms: _202  and  _205
REMARK   87  A    between atoms: _205  and  _206
REMARK   88  A    between atoms: _211  and  _213
REMARK   89  A    between atoms: _213  and  _214
REMARK   90  A    between atoms: _216  and  _218
REMARK   91  A    between atoms: _218  and  _219
REMARK   92  A    between atoms: _218  and  _221
REMARK   93  A    between atoms: _221  and  _222
REMARK   94  A    between atoms: _225  and  _227
REMARK   95  A    between atoms: _227  and  _228
REMARK   96  A    between atoms: _227  and  _230
REMARK   97  A    between atoms: _230  and  _231
REMARK   98  A    between atoms: _234  and  _236
REMARK   99  A    between atoms: _236  and  _237
REMARK  100  A    between atoms: _236  and  _239
REMARK  101  A    between atoms: _239  and  _240
REMARK  102  A    between atoms: _242  and  _244
REMARK  103  A    between atoms: _244  and  _245
REMARK  104  A    between atoms: _244  and  _247
REMARK  105  A    between atoms: _249  and  _251
REMARK  106  A    between atoms: _251  and  _252
REMARK  107  A    between atoms: _251  and  _254
REMARK  108  A    between atoms: _254  and  _255
REMARK  109  A    between atoms: _257  and  _259
REMARK  110  A    between atoms: _259  and  _260
REMARK  111  A    between atoms: _259  and  _262
REMARK  112  A    between atoms: _262  and  _263
REMARK  113  A    between atoms: _265  and  _267
REMARK  114  A    between atoms: _267  and  _268
REMARK  115  A    between atoms: _267  and  _270
REMARK  116  A    between atoms: _270  and  _271
REMARK  117  A    between atoms: _276  and  _278
REMARK  118  A    between atoms: _278  and  _279
REMARK  119  A    between atoms: _278  and  _281
REMARK  120  A    between atoms: _281  and  _282
REMARK  121  A    between atoms: _287  and  _288
REMARK  122  A    between atoms: _290  and  _292
REMARK  123  A    between atoms: _292  and  _293
REMARK  124  A    between atoms: _292  and  _295
REMARK  125  A    between atoms: _295  and  _296
REMARK  126  A    between atoms: _299  and  _301
REMARK  127  A    between atoms: _301  and  _302
REMARK  128  A    between atoms: _301  and  _304
REMARK  129  A    between atoms: _304  and  _305
REMARK  130  A    between atoms: _308  and  _310
REMARK  131  A    between atoms: _310  and  _311
REMARK  132  A    between atoms: _310  and  _313
REMARK  133  A    between atoms: _313  and  _314
REMARK  134  A    between atoms: _314  and  _315
REMARK  135  A    between atoms: _315  and  _316
REMARK  136  A    between atoms: _326  and  _327
REMARK  137  A    between atoms: _332  and  _334
REMARK  138  A    between atoms: _334  and  _335
REMARK  139  A    between atoms: _334  and  _337
REMARK  140  A    between atoms: _337  and  _338
REMARK  141  A    between atoms: _338  and  _339
REMARK  142  A    between atoms: _339  and  _340
REMARK  143  A    between atoms: _349  and  _351
REMARK  144  A    between atoms: _351  and  _352
REMARK  145  A    between atoms: _351  and  _354
REMARK  146  A    between atoms: _354  and  _355
REMARK  147  A    between atoms: _355  and  _356
REMARK  148  A    between atoms: _359  and  _361
REMARK  149  A    between atoms: _361  and  _362
REMARK  150  A    between atoms: _361  and  _364
REMARK  151  A    between atoms: _364  and  _365
REMARK  152  A    between atoms: _368  and  _370
REMARK  153  A    between atoms: _370  and  _371
REMARK  154  A    between atoms: _370  and  _373
REMARK  155  A    between atoms: _373  and  _374
REMARK  156  A    between atoms: _379  and  _381
REMARK  157  A    between atoms: _381  and  _382
REMARK  158  A    between atoms: _381  and  _384
REMARK  159  A    between atoms: _384  and  _385
REMARK  160  A    between atoms: _387  and  _389
REMARK  161  A    between atoms: _389  and  _390
REMARK  162  A    between atoms: _389  and  _392
REMARK  163  A    between atoms: _392  and  _393
REMARK  164  A    between atoms: _403  and  _405
REMARK  165  A    between atoms: _405  and  _406
REMARK  166  A    between atoms: _405  and  _408
REMARK  167  A    between atoms: _408  and  _409
REMARK  168  A    between atoms: _412  and  _414
REMARK  169  A    between atoms: _414  and  _415
REMARK  170  A    between atoms: _417  and  _419
REMARK  171  A    between atoms: _419  and  _420
REMARK  172  A    between atoms: _419  and  _422
REMARK  173  A    between atoms: _422  and  _423
REMARK  174  A    between atoms: _428  and  _430
REMARK  175  A    between atoms: _430  and  _431
REMARK  176  A    between atoms: _430  and  _433
REMARK  177  A    between atoms: _433  and  _434
REMARK  178  A    between atoms: _437  and  _439
REMARK  179  A    between atoms: _439  and  _440
REMARK  180  A    between atoms: _439  and  _442
REMARK  181  A    between atoms: _442  and  _443
REMARK  182  A    between atoms: _446  and  _448
REMARK  183  A    between atoms: _448  and  _449
REMARK  184  A    between atoms: _448  and  _451
REMARK  185  A    between atoms: _451  and  _452
REMARK  186  A    between atoms: _452  and  _453
REMARK  187  A    between atoms: _455  and  _457
REMARK  188  A    between atoms: _457  and  _458
REMARK  189  A    between atoms: _457  and  _460
REMARK  190  A    between atoms: _460  and  _461
REMARK  191  A    between atoms: _466  and  _467
REMARK  192  A    between atoms: _469  and  _471
REMARK  193  A    between atoms: _471  and  _472
REMARK  194  A    between atoms: _476  and  _477
REMARK  195  A    between atoms: _482  and  _484
REMARK  196  A    between atoms: _484  and  _485
REMARK  197  A    between atoms: _484  and  _487
REMARK  198  A    between atoms: _487  and  _488
REMARK  199  A    between atoms: _491  and  _493
REMARK  200  A    between atoms: _493  and  _494
REMARK  201  A    between atoms: _493  and  _496
REMARK  202  A    between atoms: _496  and  _497
REMARK  203  A    between atoms: _507  and  _509
REMARK  204  A    between atoms: _509  and  _510
REMARK  205  A    between atoms: _509  and  _512
REMARK  206  A    between atoms: _514  and  _516
REMARK  207  A    between atoms: _516  and  _517
REMARK  208  A    between atoms: _516  and  _519
REMARK  209  A    between atoms: _519  and  _520
REMARK  210  A    between atoms: _520  and  _521
REMARK  211  A    between atoms: _526  and  _528
REMARK  212  A    between atoms: _528  and  _529
REMARK  213  A    between atoms: _528  and  _531
REMARK  214  A    between atoms: _531  and  _532
REMARK  215  A    between atoms: _535  and  _537
REMARK  216  A    between atoms: _537  and  _538
REMARK  217  A    between atoms: _537  and  _540
REMARK  218  A    between atoms: _540  and  _541
REMARK  219  A    between atoms: _546  and  _547
REMARK  220  A    between atoms: _549  and  _551
REMARK  221  A    between atoms: _551  and  _552
REMARK  222  A    between atoms: _554  and  _556
REMARK  223  A    between atoms: _556  and  _557
REMARK  224  A    between atoms: _560  and  _562
REMARK  225  A    between atoms: _562  and  _563
REMARK  226  A    between atoms: _562  and  _565
REMARK  227  A    between atoms: _567  and  _569
REMARK  228  A    between atoms: _569  and  _570
REMARK  229  A    between atoms: _569  and  _572
REMARK  230  A    between atoms: _572  and  _573
REMARK  231  A    between atoms: _578  and  _579
REMARK  232  A    between atoms: _581  and  _583
REMARK  233  A    between atoms: _583  and  _584
REMARK  234  A    between atoms: _583  and  _586
REMARK  235  A    between atoms: _586  and  _587
REMARK  236  A    between atoms: _590  and  _592
REMARK  237  A    between atoms: _592  and  _593
REMARK  238  A    between atoms: _592  and  _595
REMARK  239  A    between atoms: _595  and  _596
REMARK  240  A    between atoms: _601  and  _603
REMARK  241  A    between atoms: _603  and  _604
REMARK  242  A    between atoms: _603  and  _606
REMARK  243  A    between atoms: _606  and  _607
REMARK  244  A    between atoms: _617  and  _619
REMARK  245  A    between atoms: _619  and  _620
REMARK  246  A    between atoms: _619  and  _622
REMARK  247  A    between atoms: _622  and  _623
REMARK  248  A    between atoms: _629  and  _631
REMARK  249  A    between atoms: _631  and  _632
REMARK  250  A    between atoms: _635  and  _637
REMARK  251  A    between atoms: _637  and  _638
REMARK  252  A    between atoms: _640  and  _642
REMARK  253  A    between atoms: _642  and  _643
REMARK  254  A    between atoms: _642  and  _645
REMARK  255  A    between atoms: _645  and  _646
REMARK  256  A    between atoms: _651  and  _652
REMARK  257  A    between atoms: _654  and  _656
REMARK  258  A    between atoms: _656  and  _657
REMARK  259  A    between atoms: _656  and  _659
REMARK  260  A    between atoms: _659  and  _660
REMARK  261  A    between atoms: _662  and  _664
REMARK  262  A    between atoms: _664  and  _665
REMARK                            x       y       z     vdW  Elec       q    Type
REMARK                         _______ _______ _______ _____ _____    ______ ____
ROOT
ATOM      1  C   THR A   1     -23.397 -11.368  17.392  0.00  0.00    +0.241 C 
ATOM      2  N   SER A   2     -24.452 -11.417  18.198  0.00  0.00    -0.296 N 
ATOM      3  H   SER A   2     -25.357 -10.996  17.905  0.00  0.00    +0.150 HD
ATOM      4  O   THR A   1     -22.366 -11.934  17.681  0.00  0.00    -0.274 OA
ENDROOT
BRANCH   1   5
ATOM      5  CA  THR A   1     -23.521 -10.644  16.039  0.00  0.00    +0.172 C 
BRANCH   5   6
ATOM      6  N   THR A   1     -24.786 -11.013  15.345  0.00  0.00    -0.236 NA
ATOM      7  H   THR A   1     -25.523 -10.297  15.185  0.00  0.00    +0.142 HD
ENDBRANCH   5   6
BRANCH   5   8
ATOM      8  CB  THR A   1     -23.425  -9.122  16.217  0.00  0.00    +0.135 C 
ATOM      9  CG2 THR A   1     -22.145  -8.715  16.967  0.00  0.00    +0.034 C 
BRANCH   8  10
ATOM     10  OG1 THR A   1     -23.421  -8.522  14.923  0.00  0.00    -0.383 OA
ATOM     11  HG1 THR A   1     -23.359  -7.538  15.017  0.00  0.00    +0.210 HD
ENDBRANCH   8  10
ENDBRANCH   5   8
ENDBRANCH   1   5
BRANCH   2  12
ATOM     12  CA  SER A   2     -24.327 -12.074  19.512  0.00  0.00    +0.166 C 
BRANCH  12  13
ATOM     13  CB  SER A   2     -24.109 -13.573  19.350  0.00  0.00    +0.229 C 
ATOM     14  OG  SER A   2     -23.164 -14.152  19.883  0.00  0.00    -0.286 OA
ENDBRANCH  12  13
BRANCH  12  15
ATOM     15  C   SER A   2     -25.564 -11.847  20.392  0.00  0.00    +0.165 C 
BRANCH  15  16
ATOM     16  O   SER A   2     -25.398 -12.519  21.643  0.00  0.00    -0.380 OA
ATOM     17  H   SER A   2     -24.598 -12.163  22.104  0.00  0.00    +0.211 HD
ENDBRANCH  15  16
ENDBRANCH  12  15
ENDBRANCH   2  12
TORSDOF 8
REMARK  Name = ../refined-set-2016/3hky/3hky_pocket.pdb
REMARK  262 active torsions:
REMARK  status: ('A' for Active; 'I' for Inactive)
REMARK    1  A    between atoms: _1  and  _3
REMARK    2  A    between atoms: _3  and  _4
REMARK    3  A    between atoms: _3  and  _6
REMARK    4  A    between atoms: _6  and  _7
REMARK    5  A    between atoms: _7  and  _8
REMARK    6  A    between atoms: _8  and  _9
REMARK    7  A    between atoms: _9  and  _10
REMARK    8  A    between atoms: _14  and  _16
REMARK    9  A    between atoms: _16  and  _17
REMARK   10  A    between atoms: _16  and  _19
REMARK   11  A    between atoms: _19  and  _20
REMARK   12  A    between atoms: _20  and  _21
REMARK   13  A    between atoms: _24  and  _26
REMARK   14  A    between atoms: _26  and  _27
REMARK   15  A    between atoms: _26  and  _29
REMARK   16  A    between atoms: _29  and  _30
REMARK   17  A    between atoms: _30  and  _31
REMARK   18  A    between atoms: _31  and  _32
REMARK   19  A    between atoms: _41  and  _43
REMARK   20  A    between atoms: _43  and  _44
REMARK   21  A    between atoms: _46  and  _48
REMARK   22  A    between atoms: _48  and  _49
REMARK   23  A    between atoms: _48  and  _51
REMARK   24  A    between atoms: _51  and  _52
REMARK   25  A    between atoms: _58  and  _60
REMARK   26  A    between atoms: _60  and  _61
REMARK   27  A    between atoms: _60  and  _63
REMARK   28  A    between atoms: _63  and  _64
REMARK   29  A    between atoms: _69  and  _70
REMARK   30  A    between atoms: _72  and  _74
REMARK   31  A    between atoms: _74  and  _75
REMARK   32  A    between atoms: _74  and  _77
REMARK   33  A    between atoms: _77  and  _78
REMARK   34  A    between atoms: _81  and  _82
REMARK   35  A    between atoms: _87  and  _89
REMARK   36  A    between atoms: _89  and  _90
REMARK   37  A    between atoms: _89  and  _92
REMARK   38  A    between atoms: _92  and  _93
REMARK   39  A    between atoms: _93  and  _94
REMARK   40  A    between atoms: _94  and  _95
REMARK   41  A    between atoms: _95  and  _96
REMARK   42  A    between atoms: _100  and  _102
REMARK   43  A    between atoms: _102  and  _103
REMARK   44  A    between atoms: _102  and  _105
REMARK   45  A    between atoms: _105  and  _106
REMARK   46  A    between atoms: _106  and  _107
REMARK   47  A    between atoms: _112  and  _114
REMARK   48  A    between atoms: _114  and  _115
REMARK   49  A    between atoms: _114  and  _117
REMARK   50  A    between atoms: _117  and  _118
REMARK   51  A    between atoms: _118  and  _119
REMARK   52  A    between atoms: _119  and  _120
REMARK   53  A    between atoms: _129  and  _131
REMARK   54  A    between atoms: _131  and  _132
REMARK   55  A    between atoms: _131  and  _134
REMARK   56  A    between atoms: _137  and  _139
REMARK   57  A    between atoms: _139  and  _140
REMARK   58  A    between atoms: _139  and  _142
REMARK   59  A    between atoms: _142  and  _143
REMARK   60  A    between atoms: _146  and  _148
REMARK   61  A    between atoms: _148  and  _149
REMARK   62  A    between atoms: _148  and  _151
REMARK   63  A    between atoms: _151  and  _152
REMARK   64  A    between atoms: _155  and  _157
REMARK   65  A    between atoms: _157  and  _158
REMARK   66  A    between atoms: _157  and  _160
REMARK   67  A    between atoms: _160  and  _161
REMARK   68  A    between atoms: _163  and  _165
REMARK   69  A    between atoms: _165  and  _166
REMARK   70  A    between atoms: _165  and  _168
REMARK   71  A    between atoms: _168  and  _169
REMARK   72  A    between atoms: _172  and  _174
REMARK   73  A    between atoms: _174  and  _175
REMARK   74  A    between atoms: _174  and  _177
REMARK   75  A    between atoms: _177  and  _178
REMARK   76  A    between atoms: _180  and  _182
REMARK   77  A    between atoms: _182  and  _183
REMARK   78  A    between atoms: _182  and  _185
REMARK   79  A    between atoms: _185  and  _186
REMARK   80  A    between atoms: _191  and  _193
REMARK   81  A    between atoms: _193  and  _194
REMARK   82  A    between atoms: _193  and  _196
REMARK   83  A    between atoms: _196  and  _197
REMARK   84  A    between atoms: _200  and  _202
REMARK   85  A    between atoms: _202  and  _203
REMARK   86  A    between atoms: _202  and  _205
REMARK   87  A    between atoms: _205  and  _206
REMARK   88  A    between atoms: _211  and  _213
REMARK   89  A    between atoms: _213  and  _214
REMARK   90  A    between atoms: _216  and  _218
REMARK   91  A    between atoms: _218  and  _219
REMARK   92  A    between atoms: _218  and  _221
REMARK   93  A    between atoms: _221  and  _222
REMARK   94  A    between atoms: _225  and  _227
REMARK   95  A    between atoms: _227  and  _228
REMARK   96  A    between atoms: _227  and  _230
REMARK   97  A    between atoms: _230  and  _231
REMARK   98  A    between atoms: _234  and  _236
REMARK   99  A    between atoms: _236  and  _237
REMARK  100  A    between atoms: _236  and  _239
REMARK  101  A    between atoms: _239  and  _240
REMARK  102  A    between atoms: _242  and  _244
REMARK  103  A    between atoms: _244  and  _245
REMARK  104  A    between atoms: _244  and  _247
REMARK  105  A    between atoms: _249  and  _251
REMARK  106  A    between atoms: _251  and  _252
REMARK  107  A    between atoms: _251  and  _254
REMARK  108  A    between atoms: _254  and  _255
REMARK  109  A    between atoms: _257  and  _259
REMARK  110  A    between atoms: _259  and  _260
REMARK  111  A    between atoms: _259  and  _262
REMARK  112  A    between atoms: _262  and  _263
REMARK  113  A    between atoms: _265  and  _267
REMARK  114  A    between atoms: _267  and  _268
REMARK  115  A    between atoms: _267  and  _270
REMARK  116  A    between atoms: _270  and  _271
REMARK  117  A    between atoms: _276  and  _278
REMARK  118  A    between atoms: _278  and  _279
REMARK  119  A    between atoms: _278  and  _281
REMARK  120  A    between atoms: _281  and  _282
REMARK  121  A    between atoms: _287  and  _288
REMARK  122  A    between atoms: _290  and  _292
REMARK  123  A    between atoms: _292  and  _293
REMARK  124  A    between atoms: _292  and  _295
REMARK  125  A    between atoms: _295  and  _296
REMARK  126  A    between atoms: _299  and  _301
REMARK  127  A    between atoms: _301  and  _302
REMARK  128  A    between atoms: _301  and  _304
REMARK  129  A    between atoms: _304  and  _305
REMARK  130  A    between atoms: _308  and  _310
REMARK  131  A    between atoms: _310  and  _311
REMARK  132  A    between atoms: _310  and  _313
REMARK  133  A    between atoms: _313  and  _314
REMARK  134  A    between atoms: _314  and  _315
REMARK  135  A    between atoms: _315  and  _316
REMARK  136  A    between atoms: _326  and  _327
REMARK  137  A    between atoms: _332  and  _334
REMARK  138  A    between atoms: _334  and  _335
REMARK  139  A    between atoms: _334  and  _337
REMARK  140  A    between atoms: _337  and  _338
REMARK  141  A    between atoms: _338  and  _339
REMARK  142  A    between atoms: _339  and  _340
REMARK  143  A    between atoms: _349  and  _351
REMARK  144  A    between atoms: _351  and  _352
REMARK  145  A    between atoms: _351  and  _354
REMARK  146  A    between atoms: _354  and  _355
REMARK  147  A    between atoms: _355  and  _356
REMARK  148  A    between atoms: _359  and  _361
REMARK  149  A    between atoms: _361  and  _362
REMARK  150  A    between atoms: _361  and  _364
REMARK  151  A    between atoms: _364  and  _365
REMARK  152  A    between atoms: _368  and  _370
REMARK  153  A    between atoms: _370  and  _371
REMARK  154  A    between atoms: _370  and  _373
REMARK  155  A    between atoms: _373  and  _374
REMARK  156  A    between atoms: _379  and  _381
REMARK  157  A    between atoms: _381  and  _382
REMARK  158  A    between atoms: _381  and  _384
REMARK  159  A    between atoms: _384  and  _385
REMARK  160  A    between atoms: _387  and  _389
REMARK  161  A    between atoms: _389  and  _390
REMARK  162  A    between atoms: _389  and  _392
REMARK  163  A    between atoms: _392  and  _393
REMARK  164  A    between atoms: _403  and  _405
REMARK  165  A    between atoms: _405  and  _406
REMARK  166  A    between atoms: _405  and  _408
REMARK  167  A    between atoms: _408  and  _409
REMARK  168  A    between atoms: _412  and  _414
REMARK  169  A    between atoms: _414  and  _415
REMARK  170  A    between atoms: _417  and  _419
REMARK  171  A    between atoms: _419  and  _420
REMARK  172  A    between atoms: _419  and  _422
REMARK  173  A    between atoms: _422  and  _423
REMARK  174  A    between atoms: _428  and  _430
REMARK  175  A    between atoms: _430  and  _431
REMARK  176  A    between atoms: _430  and  _433
REMARK  177  A    between atoms: _433  and  _434
REMARK  178  A    between atoms: _437  and  _439
REMARK  179  A    between atoms: _439  and  _440
REMARK  180  A    between atoms: _439  and  _442
REMARK  181  A    between atoms: _442  and  _443
REMARK  182  A    between atoms: _446  and  _448
REMARK  183  A    between atoms: _448  and  _449
REMARK  184  A    between atoms: _448  and  _451
REMARK  185  A    between atoms: _451  and  _452
REMARK  186  A    between atoms: _452  and  _453
REMARK  187  A    between atoms: _455  and  _457
REMARK  188  A    between atoms: _457  and  _458
REMARK  189  A    between atoms: _457  and  _460
REMARK  190  A    between atoms: _460  and  _461
REMARK  191  A    between atoms: _466  and  _467
REMARK  192  A    between atoms: _469  and  _471
REMARK  193  A    between atoms: _471  and  _472
REMARK  194  A    between atoms: _476  and  _477
REMARK  195  A    between atoms: _482  and  _484
REMARK  196  A    between atoms: _484  and  _485
REMARK  197  A    between atoms: _484  and  _487
REMARK  198  A    between atoms: _487  and  _488
REMARK  199  A    between atoms: _491  and  _493
REMARK  200  A    between atoms: _493  and  _494
REMARK  201  A    between atoms: _493  and  _496
REMARK  202  A    between atoms: _496  and  _497
REMARK  203  A    between atoms: _507  and  _509
REMARK  204  A    between atoms: _509  and  _510
REMARK  205  A    between atoms: _509  and  _512
REMARK  206  A    between atoms: _514  and  _516
REMARK  207  A    between atoms: _516  and  _517
REMARK  208  A    between atoms: _516  and  _519
REMARK  209  A    between atoms: _519  and  _520
REMARK  210  A    between atoms: _520  and  _521
REMARK  211  A    between atoms: _526  and  _528
REMARK  212  A    between atoms: _528  and  _529
REMARK  213  A    between atoms: _528  and  _531
REMARK  214  A    between atoms: _531  and  _532
REMARK  215  A    between atoms: _535  and  _537
REMARK  216  A    between atoms: _537  and  _538
REMARK  217  A    between atoms: _537  and  _540
REMARK  218  A    between atoms: _540  and  _541
REMARK  219  A    between atoms: _546  and  _547
REMARK  220  A    between atoms: _549  and  _551
REMARK  221  A    between atoms: _551  and  _552
REMARK  222  A    between atoms: _554  and  _556
REMARK  223  A    between atoms: _556  and  _557
REMARK  224  A    between atoms: _560  and  _562
REMARK  225  A    between atoms: _562  and  _563
REMARK  226  A    between atoms: _562  and  _565
REMARK  227  A    between atoms: _567  and  _569
REMARK  228  A    between atoms: _569  and  _570
REMARK  229  A    between atoms: _569  and  _572
REMARK  230  A    between atoms: _572  and  _573
REMARK  231  A    between atoms: _578  and  _579
REMARK  232  A    between atoms: _581  and  _583
REMARK  233  A    between atoms: _583  and  _584
REMARK  234  A    between atoms: _583  and  _586
REMARK  235  A    between atoms: _586  and  _587
REMARK  236  A    between atoms: _590  and  _592
REMARK  237  A    between atoms: _592  and  _593
REMARK  238  A    between atoms: _592  and  _595
REMARK  239  A    between atoms: _595  and  _596
REMARK  240  A    between atoms: _601  and  _603
REMARK  241  A    between atoms: _603  and  _604
REMARK  242  A    between atoms: _603  and  _606
REMARK  243  A    between atoms: _606  and  _607
REMARK  244  A    between atoms: _617  and  _619
REMARK  245  A    between atoms: _619  and  _620
REMARK  246  A    between atoms: _619  and  _622
REMARK  247  A    between atoms: _622  and  _623
REMARK  248  A    between atoms: _629  and  _631
REMARK  249  A    between atoms: _631  and  _632
REMARK  250  A    between atoms: _635  and  _637
REMARK  251  A    between atoms: _637  and  _638
REMARK  252  A    between atoms: _640  and  _642
REMARK  253  A    between atoms: _642  and  _643
REMARK  254  A    between atoms: _642  and  _645
REMARK  255  A    between atoms: _645  and  _646
REMARK  256  A    between atoms: _651  and  _652
REMARK  257  A    between atoms: _654  and  _656
REMARK  258  A    between atoms: _656  and  _657
REMARK  259  A    between atoms: _656  and  _659
REMARK  260  A    between atoms: _659  and  _660
REMARK  261  A    between atoms: _662  and  _664
REMARK  262  A    between atoms: _664  and  _665
REMARK                            x       y       z     vdW  Elec       q    Type
REMARK                         _______ _______ _______ _____ _____    ______ ____
ROOT
ATOM      1  CB  ASN A   1     -19.625 -12.703  19.125  0.00  0.00    +0.110 C 
ENDROOT
BRANCH   1   2
ATOM      2  CG  ASN A   1     -19.183 -11.572  18.212  0.00  0.00    +0.221 C 
ATOM      3  ND2 ASN A   1     -19.381 -10.320  18.634  0.00  0.00    -0.329 N 
ATOM      4 HD21 ASN A   1     -19.827 -10.147  19.558  0.00  0.00    +0.145 HD
ATOM      5 HD22 ASN A   1     -19.089  -9.518  18.039  0.00  0.00    +0.145 HD
ATOM      6  OD1 ASN A   1     -18.667 -11.831  17.142  0.00  0.00    -0.275 OA
ENDBRANCH   1   2
BRANCH   1   7
ATOM      7  CA  ASN A   1     -19.521 -14.078  18.444  0.00  0.00    +0.142 C 
BRANCH   7   8
ATOM      8  N   ASN A   1     -20.659 -14.312  17.519  0.00  0.00    -0.239 NA
ATOM      9  H   ASN A   1     -21.428 -13.614  17.460  0.00  0.00    +0.142 HD
ENDBRANCH   7   8
BRANCH   7  10
ATOM     10  C   ASN A   1     -19.446 -15.167  19.495  0.00  0.00    +0.225 C 
ATOM     11  O   ASN A   1     -18.381 -15.627  19.837  0.00  0.00    -0.287 OA
ENDBRANCH   7  10
ENDBRANCH   1   7
TORSDOF 4
REMARK  Name = ../refined-set-2016/3hky/3hky_pocket.pdb
REMARK  262 active torsions:
REMARK  status: ('A' for Active; 'I' for Inactive)
REMARK    1  A    between atoms: _1  and  _3
REMARK    2  A    between atoms: _3  and  _4
REMARK    3  A    between atoms: _3  and  _6
REMARK    4  A    between atoms: _6  and  _7
REMARK    5  A    between atoms: _7  and  _8
REMARK    6  A    between atoms: _8  and  _9
REMARK    7  A    between atoms: _9  and  _10
REMARK    8  A    between atoms: _14  and  _16
REMARK    9  A    between atoms: _16  and  _17
REMARK   10  A    between atoms: _16  and  _19
REMARK   11  A    between atoms: _19  and  _20
REMARK   12  A    between atoms: _20  and  _21
REMARK   13  A    between atoms: _24  and  _26
REMARK   14  A    between atoms: _26  and  _27
REMARK   15  A    between atoms: _26  and  _29
REMARK   16  A    between atoms: _29  and  _30
REMARK   17  A    between atoms: _30  and  _31
REMARK   18  A    between atoms: _31  and  _32
REMARK   19  A    between atoms: _41  and  _43
REMARK   20  A    between atoms: _43  and  _44
REMARK   21  A    between atoms: _46  and  _48
REMARK   22  A    between atoms: _48  and  _49
REMARK   23  A    between atoms: _48  and  _51
REMARK   24  A    between atoms: _51  and  _52
REMARK   25  A    between atoms: _58  and  _60
REMARK   26  A    between atoms: _60  and  _61
REMARK   27  A    between atoms: _60  and  _63
REMARK   28  A    between atoms: _63  and  _64
REMARK   29  A    between atoms: _69  and  _70
REMARK   30  A    between atoms: _72  and  _74
REMARK   31  A    between atoms: _74  and  _75
REMARK   32  A    between atoms: _74  and  _77
REMARK   33  A    between atoms: _77  and  _78
REMARK   34  A    between atoms: _81  and  _82
REMARK   35  A    between atoms: _87  and  _89
REMARK   36  A    between atoms: _89  and  _90
REMARK   37  A    between atoms: _89  and  _92
REMARK   38  A    between atoms: _92  and  _93
REMARK   39  A    between atoms: _93  and  _94
REMARK   40  A    between atoms: _94  and  _95
REMARK   41  A    between atoms: _95  and  _96
REMARK   42  A    between atoms: _100  and  _102
REMARK   43  A    between atoms: _102  and  _103
REMARK   44  A    between atoms: _102  and  _105
REMARK   45  A    between atoms: _105  and  _106
REMARK   46  A    between atoms: _106  and  _107
REMARK   47  A    between atoms: _112  and  _114
REMARK   48  A    between atoms: _114  and  _115
REMARK   49  A    between atoms: _114  and  _117
REMARK   50  A    between atoms: _117  and  _118
REMARK   51  A    between atoms: _118  and  _119
REMARK   52  A    between atoms: _119  and  _120
REMARK   53  A    between atoms: _129  and  _131
REMARK   54  A    between atoms: _131  and  _132
REMARK   55  A    between atoms: _131  and  _134
REMARK   56  A    between atoms: _137  and  _139
REMARK   57  A    between atoms: _139  and  _140
REMARK   58  A    between atoms: _139  and  _142
REMARK   59  A    between atoms: _142  and  _143
REMARK   60  A    between atoms: _146  and  _148
REMARK   61  A    between atoms: _148  and  _149
REMARK   62  A    between atoms: _148  and  _151
REMARK   63  A    between atoms: _151  and  _152
REMARK   64  A    between atoms: _155  and  _157
REMARK   65  A    between atoms: _157  and  _158
REMARK   66  A    between atoms: _157  and  _160
REMARK   67  A    between atoms: _160  and  _161
REMARK   68  A    between atoms: _163  and  _165
REMARK   69  A    between atoms: _165  and  _166
REMARK   70  A    between atoms: _165  and  _168
REMARK   71  A    between atoms: _168  and  _169
REMARK   72  A    between atoms: _172  and  _174
REMARK   73  A    between atoms: _174  and  _175
REMARK   74  A    between atoms: _174  and  _177
REMARK   75  A    between atoms: _177  and  _178
REMARK   76  A    between atoms: _180  and  _182
REMARK   77  A    between atoms: _182  and  _183
REMARK   78  A    between atoms: _182  and  _185
REMARK   79  A    between atoms: _185  and  _186
REMARK   80  A    between atoms: _191  and  _193
REMARK   81  A    between atoms: _193  and  _194
REMARK   82  A    between atoms: _193  and  _196
REMARK   83  A    between atoms: _196  and  _197
REMARK   84  A    between atoms: _200  and  _202
REMARK   85  A    between atoms: _202  and  _203
REMARK   86  A    between atoms: _202  and  _205
REMARK   87  A    between atoms: _205  and  _206
REMARK   88  A    between atoms: _211  and  _213
REMARK   89  A    between atoms: _213  and  _214
REMARK   90  A    between atoms: _216  and  _218
REMARK   91  A    between atoms: _218  and  _219
REMARK   92  A    between atoms: _218  and  _221
REMARK   93  A    between atoms: _221  and  _222
REMARK   94  A    between atoms: _225  and  _227
REMARK   95  A    between atoms: _227  and  _228
REMARK   96  A    between atoms: _227  and  _230
REMARK   97  A    between atoms: _230  and  _231
REMARK   98  A    between atoms: _234  and  _236
REMARK   99  A    between atoms: _236  and  _237
REMARK  100  A    between atoms: _236  and  _239
REMARK  101  A    between atoms: _239  and  _240
REMARK  102  A    between atoms: _242  and  _244
REMARK  103  A    between atoms: _244  and  _245
REMARK  104  A    between atoms: _244  and  _247
REMARK  105  A    between atoms: _249  and  _251
REMARK  106  A    between atoms: _251  and  _252
REMARK  107  A    between atoms: _251  and  _254
REMARK  108  A    between atoms: _254  and  _255
REMARK  109  A    between atoms: _257  and  _259
REMARK  110  A    between atoms: _259  and  _260
REMARK  111  A    between atoms: _259  and  _262
REMARK  112  A    between atoms: _262  and  _263
REMARK  113  A    between atoms: _265  and  _267
REMARK  114  A    between atoms: _267  and  _268
REMARK  115  A    between atoms: _267  and  _270
REMARK  116  A    between atoms: _270  and  _271
REMARK  117  A    between atoms: _276  and  _278
REMARK  118  A    between atoms: _278  and  _279
REMARK  119  A    between atoms: _278  and  _281
REMARK  120  A    between atoms: _281  and  _282
REMARK  121  A    between atoms: _287  and  _288
REMARK  122  A    between atoms: _290  and  _292
REMARK  123  A    between atoms: _292  and  _293
REMARK  124  A    between atoms: _292  and  _295
REMARK  125  A    between atoms: _295  and  _296
REMARK  126  A    between atoms: _299  and  _301
REMARK  127  A    between atoms: _301  and  _302
REMARK  128  A    between atoms: _301  and  _304
REMARK  129  A    between atoms: _304  and  _305
REMARK  130  A    between atoms: _308  and  _310
REMARK  131  A    between atoms: _310  and  _311
REMARK  132  A    between atoms: _310  and  _313
REMARK  133  A    between atoms: _313  and  _314
REMARK  134  A    between atoms: _314  and  _315
REMARK  135  A    between atoms: _315  and  _316
REMARK  136  A    between atoms: _326  and  _327
REMARK  137  A    between atoms: _332  and  _334
REMARK  138  A    between atoms: _334  and  _335
REMARK  139  A    between atoms: _334  and  _337
REMARK  140  A    between atoms: _337  and  _338
REMARK  141  A    between atoms: _338  and  _339
REMARK  142  A    between atoms: _339  and  _340
REMARK  143  A    between atoms: _349  and  _351
REMARK  144  A    between atoms: _351  and  _352
REMARK  145  A    between atoms: _351  and  _354
REMARK  146  A    between atoms: _354  and  _355
REMARK  147  A    between atoms: _355  and  _356
REMARK  148  A    between atoms: _359  and  _361
REMARK  149  A    between atoms: _361  and  _362
REMARK  150  A    between atoms: _361  and  _364
REMARK  151  A    between atoms: _364  and  _365
REMARK  152  A    between atoms: _368  and  _370
REMARK  153  A    between atoms: _370  and  _371
REMARK  154  A    between atoms: _370  and  _373
REMARK  155  A    between atoms: _373  and  _374
REMARK  156  A    between atoms: _379  and  _381
REMARK  157  A    between atoms: _381  and  _382
REMARK  158  A    between atoms: _381  and  _384
REMARK  159  A    between atoms: _384  and  _385
REMARK  160  A    between atoms: _387  and  _389
REMARK  161  A    between atoms: _389  and  _390
REMARK  162  A    between atoms: _389  and  _392
REMARK  163  A    between atoms: _392  and  _393
REMARK  164  A    between atoms: _403  and  _405
REMARK  165  A    between atoms: _405  and  _406
REMARK  166  A    between atoms: _405  and  _408
REMARK  167  A    between atoms: _408  and  _409
REMARK  168  A    between atoms: _412  and  _414
REMARK  169  A    between atoms: _414  and  _415
REMARK  170  A    between atoms: _417  and  _419
REMARK  171  A    between atoms: _419  and  _420
REMARK  172  A    between atoms: _419  and  _422
REMARK  173  A    between atoms: _422  and  _423
REMARK  174  A    between atoms: _428  and  _430
REMARK  175  A    between atoms: _430  and  _431
REMARK  176  A    between atoms: _430  and  _433
REMARK  177  A    between atoms: _433  and  _434
REMARK  178  A    between atoms: _437  and  _439
REMARK  179  A    between atoms: _439  and  _440
REMARK  180  A    between atoms: _439  and  _442
REMARK  181  A    between atoms: _442  and  _443
REMARK  182  A    between atoms: _446  and  _448
REMARK  183  A    between atoms: _448  and  _449
REMARK  184  A    between atoms: _448  and  _451
REMARK  185  A    between atoms: _451  and  _452
REMARK  186  A    between atoms: _452  and  _453
REMARK  187  A    between atoms: _455  and  _457
REMARK  188  A    between atoms: _457  and  _458
REMARK  189  A    between atoms: _457  and  _460
REMARK  190  A    between atoms: _460  and  _461
REMARK  191  A    between atoms: _466  and  _467
REMARK  192  A    between atoms: _469  and  _471
REMARK  193  A    between atoms: _471  and  _472
REMARK  194  A    between atoms: _476  and  _477
REMARK  195  A    between atoms: _482  and  _484
REMARK  196  A    between atoms: _484  and  _485
REMARK  197  A    between atoms: _484  and  _487
REMARK  198  A    between atoms: _487  and  _488
REMARK  199  A    between atoms: _491  and  _493
REMARK  200  A    between atoms: _493  and  _494
REMARK  201  A    between atoms: _493  and  _496
REMARK  202  A    between atoms: _496  and  _497
REMARK  203  A    between atoms: _507  and  _509
REMARK  204  A    between atoms: _509  and  _510
REMARK  205  A    between atoms: _509  and  _512
REMARK  206  A    between atoms: _514  and  _516
REMARK  207  A    between atoms: _516  and  _517
REMARK  208  A    between atoms: _516  and  _519
REMARK  209  A    between atoms: _519  and  _520
REMARK  210  A    between atoms: _520  and  _521
REMARK  211  A    between atoms: _526  and  _528
REMARK  212  A    between atoms: _528  and  _529
REMARK  213  A    between atoms: _528  and  _531
REMARK  214  A    between atoms: _531  and  _532
REMARK  215  A    between atoms: _535  and  _537
REMARK  216  A    between atoms: _537  and  _538
REMARK  217  A    between atoms: _537  and  _540
REMARK  218  A    between atoms: _540  and  _541
REMARK  219  A    between atoms: _546  and  _547
REMARK  220  A    between atoms: _549  and  _551
REMARK  221  A    between atoms: _551  and  _552
REMARK  222  A    between atoms: _554  and  _556
REMARK  223  A    between atoms: _556  and  _557
REMARK  224  A    between atoms: _560  and  _562
REMARK  225  A    between atoms: _562  and  _563
REMARK  226  A    between atoms: _562  and  _565
REMARK  227  A    between atoms: _567  and  _569
REMARK  228  A    between atoms: _569  and  _570
REMARK  229  A    between atoms: _569  and  _572
REMARK  230  A    between atoms: _572  and  _573
REMARK  231  A    between atoms: _578  and  _579
REMARK  232  A    between atoms: _581  and  _583
REMARK  233  A    between atoms: _583  and  _584
REMARK  234  A    between atoms: _583  and  _586
REMARK  235  A    between atoms: _586  and  _587
REMARK  236  A    between atoms: _590  and  _592
REMARK  237  A    between atoms: _592  and  _593
REMARK  238  A    between atoms: _592  and  _595
REMARK  239  A    between atoms: _595  and  _596
REMARK  240  A    between atoms: _601  and  _603
REMARK  241  A    between atoms: _603  and  _604
REMARK  242  A    between atoms: _603  and  _606
REMARK  243  A    between atoms: _606  and  _607
REMARK  244  A    between atoms: _617  and  _619
REMARK  245  A    between atoms: _619  and  _620
REMARK  246  A    between atoms: _619  and  _622
REMARK  247  A    between atoms: _622  and  _623
REMARK  248  A    between atoms: _629  and  _631
REMARK  249  A    between atoms: _631  and  _632
REMARK  250  A    between atoms: _635  and  _637
REMARK  251  A    between atoms: _637  and  _638
REMARK  252  A    between atoms: _640  and  _642
REMARK  253  A    between atoms: _642  and  _643
REMARK  254  A    between atoms: _642  and  _645
REMARK  255  A    between atoms: _645  and  _646
REMARK  256  A    between atoms: _651  and  _652
REMARK  257  A    between atoms: _654  and  _656
REMARK  258  A    between atoms: _656  and  _657
REMARK  259  A    between atoms: _656  and  _659
REMARK  260  A    between atoms: _659  and  _660
REMARK  261  A    between atoms: _662  and  _664
REMARK  262  A    between atoms: _664  and  _665
REMARK                            x       y       z     vdW  Elec       q    Type
REMARK                         _______ _______ _______ _____ _____    ______ ____
ROOT
ATOM      1  CA  LEU A   1     -19.289 -19.941  30.162  0.00  0.00    +0.133 C 
ENDROOT
BRANCH   1   2
ATOM      2  N   LEU A   1     -18.097 -20.735  30.232  0.00  0.00    -0.239 NA
ATOM      3  H   LEU A   1     -17.189 -20.256  30.400  0.00  0.00    +0.142 HD
ENDBRANCH   1   2
BRANCH   1   4
ATOM      4  C   LEU A   1     -19.022 -18.799  29.186  0.00  0.00    +0.224 C 
ATOM      5  O   LEU A   1     -18.099 -18.029  29.369  0.00  0.00    -0.287 OA
ENDBRANCH   1   4
BRANCH   1   6
ATOM      6  CB  LEU A   1     -19.639 -19.427  31.540  0.00  0.00    +0.025 C 
BRANCH   6   7
ATOM      7  CG  LEU A   1     -21.038 -18.829  31.695  0.00  0.00    +0.002 C 
ATOM      8  CD2 LEU A   1     -21.224 -18.412  33.143  0.00  0.00    +0.000 C 
ATOM      9  CD1 LEU A   1     -22.134 -19.788  31.264  0.00  0.00    +0.000 C 
ENDBRANCH   6   7
ENDBRANCH   1   6
TORSDOF 4
REMARK  Name = ../refined-set-2016/3hky/3hky_pocket.pdb
REMARK  262 active torsions:
REMARK  status: ('A' for Active; 'I' for Inactive)
REMARK    1  A    between atoms: _1  and  _3
REMARK    2  A    between atoms: _3  and  _4
REMARK    3  A    between atoms: _3  and  _6
REMARK    4  A    between atoms: _6  and  _7
REMARK    5  A    between atoms: _7  and  _8
REMARK    6  A    between atoms: _8  and  _9
REMARK    7  A    between atoms: _9  and  _10
REMARK    8  A    between atoms: _14  and  _16
REMARK    9  A    between atoms: _16  and  _17
REMARK   10  A    between atoms: _16  and  _19
REMARK   11  A    between atoms: _19  and  _20
REMARK   12  A    between atoms: _20  and  _21
REMARK   13  A    between atoms: _24  and  _26
REMARK   14  A    between atoms: _26  and  _27
REMARK   15  A    between atoms: _26  and  _29
REMARK   16  A    between atoms: _29  and  _30
REMARK   17  A    between atoms: _30  and  _31
REMARK   18  A    between atoms: _31  and  _32
REMARK   19  A    between atoms: _41  and  _43
REMARK   20  A    between atoms: _43  and  _44
REMARK   21  A    between atoms: _46  and  _48
REMARK   22  A    between atoms: _48  and  _49
REMARK   23  A    between atoms: _48  and  _51
REMARK   24  A    between atoms: _51  and  _52
REMARK   25  A    between atoms: _58  and  _60
REMARK   26  A    between atoms: _60  and  _61
REMARK   27  A    between atoms: _60  and  _63
REMARK   28  A    between atoms: _63  and  _64
REMARK   29  A    between atoms: _69  and  _70
REMARK   30  A    between atoms: _72  and  _74
REMARK   31  A    between atoms: _74  and  _75
REMARK   32  A    between atoms: _74  and  _77
REMARK   33  A    between atoms: _77  and  _78
REMARK   34  A    between atoms: _81  and  _82
REMARK   35  A    between atoms: _87  and  _89
REMARK   36  A    between atoms: _89  and  _90
REMARK   37  A    between atoms: _89  and  _92
REMARK   38  A    between atoms: _92  and  _93
REMARK   39  A    between atoms: _93  and  _94
REMARK   40  A    between atoms: _94  and  _95
REMARK   41  A    between atoms: _95  and  _96
REMARK   42  A    between atoms: _100  and  _102
REMARK   43  A    between atoms: _102  and  _103
REMARK   44  A    between atoms: _102  and  _105
REMARK   45  A    between atoms: _105  and  _106
REMARK   46  A    between atoms: _106  and  _107
REMARK   47  A    between atoms: _112  and  _114
REMARK   48  A    between atoms: _114  and  _115
REMARK   49  A    between atoms: _114  and  _117
REMARK   50  A    between atoms: _117  and  _118
REMARK   51  A    between atoms: _118  and  _119
REMARK   52  A    between atoms: _119  and  _120
REMARK   53  A    between atoms: _129  and  _131
REMARK   54  A    between atoms: _131  and  _132
REMARK   55  A    between atoms: _131  and  _134
REMARK   56  A    between atoms: _137  and  _139
REMARK   57  A    between atoms: _139  and  _140
REMARK   58  A    between atoms: _139  and  _142
REMARK   59  A    between atoms: _142  and  _143
REMARK   60  A    between atoms: _146  and  _148
REMARK   61  A    between atoms: _148  and  _149
REMARK   62  A    between atoms: _148  and  _151
REMARK   63  A    between atoms: _151  and  _152
REMARK   64  A    between atoms: _155  and  _157
REMARK   65  A    between atoms: _157  and  _158
REMARK   66  A    between atoms: _157  and  _160
REMARK   67  A    between atoms: _160  and  _161
REMARK   68  A    between atoms: _163  and  _165
REMARK   69  A    between atoms: _165  and  _166
REMARK   70  A    between atoms: _165  and  _168
REMARK   71  A    between atoms: _168  and  _169
REMARK   72  A    between atoms: _172  and  _174
REMARK   73  A    between atoms: _174  and  _175
REMARK   74  A    between atoms: _174  and  _177
REMARK   75  A    between atoms: _177  and  _178
REMARK   76  A    between atoms: _180  and  _182
REMARK   77  A    between atoms: _182  and  _183
REMARK   78  A    between atoms: _182  and  _185
REMARK   79  A    between atoms: _185  and  _186
REMARK   80  A    between atoms: _191  and  _193
REMARK   81  A    between atoms: _193  and  _194
REMARK   82  A    between atoms: _193  and  _196
REMARK   83  A    between atoms: _196  and  _197
REMARK   84  A    between atoms: _200  and  _202
REMARK   85  A    between atoms: _202  and  _203
REMARK   86  A    between atoms: _202  and  _205
REMARK   87  A    between atoms: _205  and  _206
REMARK   88  A    between atoms: _211  and  _213
REMARK   89  A    between atoms: _213  and  _214
REMARK   90  A    between atoms: _216  and  _218
REMARK   91  A    between atoms: _218  and  _219
REMARK   92  A    between atoms: _218  and  _221
REMARK   93  A    between atoms: _221  and  _222
REMARK   94  A    between atoms: _225  and  _227
REMARK   95  A    between atoms: _227  and  _228
REMARK   96  A    between atoms: _227  and  _230
REMARK   97  A    between atoms: _230  and  _231
REMARK   98  A    between atoms: _234  and  _236
REMARK   99  A    between atoms: _236  and  _237
REMARK  100  A    between atoms: _236  and  _239
REMARK  101  A    between atoms: _239  and  _240
REMARK  102  A    between atoms: _242  and  _244
REMARK  103  A    between atoms: _244  and  _245
REMARK  104  A    between atoms: _244  and  _247
REMARK  105  A    between atoms: _249  and  _251
REMARK  106  A    between atoms: _251  and  _252
REMARK  107  A    between atoms: _251  and  _254
REMARK  108  A    between atoms: _254  and  _255
REMARK  109  A    between atoms: _257  and  _259
REMARK  110  A    between atoms: _259  and  _260
REMARK  111  A    between atoms: _259  and  _262
REMARK  112  A    between atoms: _262  and  _263
REMARK  113  A    between atoms: _265  and  _267
REMARK  114  A    between atoms: _267  and  _268
REMARK  115  A    between atoms: _267  and  _270
REMARK  116  A    between atoms: _270  and  _271
REMARK  117  A    between atoms: _276  and  _278
REMARK  118  A    between atoms: _278  and  _279
REMARK  119  A    between atoms: _278  and  _281
REMARK  120  A    between atoms: _281  and  _282
REMARK  121  A    between atoms: _287  and  _288
REMARK  122  A    between atoms: _290  and  _292
REMARK  123  A    between atoms: _292  and  _293
REMARK  124  A    between atoms: _292  and  _295
REMARK  125  A    between atoms: _295  and  _296
REMARK  126  A    between atoms: _299  and  _301
REMARK  127  A    between atoms: _301  and  _302
REMARK  128  A    between atoms: _301  and  _304
REMARK  129  A    between atoms: _304  and  _305
REMARK  130  A    between atoms: _308  and  _310
REMARK  131  A    between atoms: _310  and  _311
REMARK  132  A    between atoms: _310  and  _313
REMARK  133  A    between atoms: _313  and  _314
REMARK  134  A    between atoms: _314  and  _315
REMARK  135  A    between atoms: _315  and  _316
REMARK  136  A    between atoms: _326  and  _327
REMARK  137  A    between atoms: _332  and  _334
REMARK  138  A    between atoms: _334  and  _335
REMARK  139  A    between atoms: _334  and  _337
REMARK  140  A    between atoms: _337  and  _338
REMARK  141  A    between atoms: _338  and  _339
REMARK  142  A    between atoms: _339  and  _340
REMARK  143  A    between atoms: _349  and  _351
REMARK  144  A    between atoms: _351  and  _352
REMARK  145  A    between atoms: _351  and  _354
REMARK  146  A    between atoms: _354  and  _355
REMARK  147  A    between atoms: _355  and  _356
REMARK  148  A    between atoms: _359  and  _361
REMARK  149  A    between atoms: _361  and  _362
REMARK  150  A    between atoms: _361  and  _364
REMARK  151  A    between atoms: _364  and  _365
REMARK  152  A    between atoms: _368  and  _370
REMARK  153  A    between atoms: _370  and  _371
REMARK  154  A    between atoms: _370  and  _373
REMARK  155  A    between atoms: _373  and  _374
REMARK  156  A    between atoms: _379  and  _381
REMARK  157  A    between atoms: _381  and  _382
REMARK  158  A    between atoms: _381  and  _384
REMARK  159  A    between atoms: _384  and  _385
REMARK  160  A    between atoms: _387  and  _389
REMARK  161  A    between atoms: _389  and  _390
REMARK  162  A    between atoms: _389  and  _392
REMARK  163  A    between atoms: _392  and  _393
REMARK  164  A    between atoms: _403  and  _405
REMARK  165  A    between atoms: _405  and  _406
REMARK  166  A    between atoms: _405  and  _408
REMARK  167  A    between atoms: _408  and  _409
REMARK  168  A    between atoms: _412  and  _414
REMARK  169  A    between atoms: _414  and  _415
REMARK  170  A    between atoms: _417  and  _419
REMARK  171  A    between atoms: _419  and  _420
REMARK  172  A    between atoms: _419  and  _422
REMARK  173  A    between atoms: _422  and  _423
REMARK  174  A    between atoms: _428  and  _430
REMARK  175  A    between atoms: _430  and  _431
REMARK  176  A    between atoms: _430  and  _433
REMARK  177  A    between atoms: _433  and  _434
REMARK  178  A    between atoms: _437  and  _439
REMARK  179  A    between atoms: _439  and  _440
REMARK  180  A    between atoms: _439  and  _442
REMARK  181  A    between atoms: _442  and  _443
REMARK  182  A    between atoms: _446  and  _448
REMARK  183  A    between atoms: _448  and  _449
REMARK  184  A    between atoms: _448  and  _451
REMARK  185  A    between atoms: _451  and  _452
REMARK  186  A    between atoms: _452  and  _453
REMARK  187  A    between atoms: _455  and  _457
REMARK  188  A    between atoms: _457  and  _458
REMARK  189  A    between atoms: _457  and  _460
REMARK  190  A    between atoms: _460  and  _461
REMARK  191  A    between atoms: _466  and  _467
REMARK  192  A    between atoms: _469  and  _471
REMARK  193  A    between atoms: _471  and  _472
REMARK  194  A    between atoms: _476  and  _477
REMARK  195  A    between atoms: _482  and  _484
REMARK  196  A    between atoms: _484  and  _485
REMARK  197  A    between atoms: _484  and  _487
REMARK  198  A    between atoms: _487  and  _488
REMARK  199  A    between atoms: _491  and  _493
REMARK  200  A    between atoms: _493  and  _494
REMARK  201  A    between atoms: _493  and  _496
REMARK  202  A    between atoms: _496  and  _497
REMARK  203  A    between atoms: _507  and  _509
REMARK  204  A    between atoms: _509  and  _510
REMARK  205  A    between atoms: _509  and  _512
REMARK  206  A    between atoms: _514  and  _516
REMARK  207  A    between atoms: _516  and  _517
REMARK  208  A    between atoms: _516  and  _519
REMARK  209  A    between atoms: _519  and  _520
REMARK  210  A    between atoms: _520  and  _521
REMARK  211  A    between atoms: _526  and  _528
REMARK  212  A    between atoms: _528  and  _529
REMARK  213  A    between atoms: _528  and  _531
REMARK  214  A    between atoms: _531  and  _532
REMARK  215  A    between atoms: _535  and  _537
REMARK  216  A    between atoms: _537  and  _538
REMARK  217  A    between atoms: _537  and  _540
REMARK  218  A    between atoms: _540  and  _541
REMARK  219  A    between atoms: _546  and  _547
REMARK  220  A    between atoms: _549  and  _551
REMARK  221  A    between atoms: _551  and  _552
REMARK  222  A    between atoms: _554  and  _556
REMARK  223  A    between atoms: _556  and  _557
REMARK  224  A    between atoms: _560  and  _562
REMARK  225  A    between atoms: _562  and  _563
REMARK  226  A    between atoms: _562  and  _565
REMARK  227  A    between atoms: _567  and  _569
REMARK  228  A    between atoms: _569  and  _570
REMARK  229  A    between atoms: _569  and  _572
REMARK  230  A    between atoms: _572  and  _573
REMARK  231  A    between atoms: _578  and  _579
REMARK  232  A    between atoms: _581  and  _583
REMARK  233  A    between atoms: _583  and  _584
REMARK  234  A    between atoms: _583  and  _586
REMARK  235  A    between atoms: _586  and  _587
REMARK  236  A    between atoms: _590  and  _592
REMARK  237  A    between atoms: _592  and  _593
REMARK  238  A    between atoms: _592  and  _595
REMARK  239  A    between atoms: _595  and  _596
REMARK  240  A    between atoms: _601  and  _603
REMARK  241  A    between atoms: _603  and  _604
REMARK  242  A    between atoms: _603  and  _606
REMARK  243  A    between atoms: _606  and  _607
REMARK  244  A    between atoms: _617  and  _619
REMARK  245  A    between atoms: _619  and  _620
REMARK  246  A    between atoms: _619  and  _622
REMARK  247  A    between atoms: _622  and  _623
REMARK  248  A    between atoms: _629  and  _631
REMARK  249  A    between atoms: _631  and  _632
REMARK  250  A    between atoms: _635  and  _637
REMARK  251  A    between atoms: _637  and  _638
REMARK  252  A    between atoms: _640  and  _642
REMARK  253  A    between atoms: _642  and  _643
REMARK  254  A    between atoms: _642  and  _645
REMARK  255  A    between atoms: _645  and  _646
REMARK  256  A    between atoms: _651  and  _652
REMARK  257  A    between atoms: _654  and  _656
REMARK  258  A    between atoms: _656  and  _657
REMARK  259  A    between atoms: _656  and  _659
REMARK  260  A    between atoms: _659  and  _660
REMARK  261  A    between atoms: _662  and  _664
REMARK  262  A    between atoms: _664  and  _665
REMARK                            x       y       z     vdW  Elec       q    Type
REMARK                         _______ _______ _______ _____ _____    ______ ____
ROOT
ATOM      1  C   GLY A   2     -19.083 -13.352  23.095  0.00  0.00    +0.243 C 
ATOM      2  N   ASP A   3     -18.325 -12.267  23.197  0.00  0.00    -0.296 N 
ATOM      3  H   ASP A   3     -18.785 -11.335  23.176  0.00  0.00    +0.150 HD
ATOM      4  O   GLY A   2     -18.657 -14.475  23.173  0.00  0.00    -0.273 OA
ENDROOT
BRANCH   1   5
ATOM      5  CA  GLY A   2     -20.569 -13.148  22.975  0.00  0.00    +0.176 C 
BRANCH   5   8
ATOM      6  C   ASN A   1     -21.006 -13.751  25.273  0.00  0.00    +0.239 C 
ATOM      7  O   ASN A   1     -20.398 -12.788  25.632  0.00  0.00    -0.274 OA
ATOM      8  N   GLY A   2     -21.199 -14.005  23.976  0.00  0.00    -0.296 N 
ATOM      9  H   GLY A   2     -21.793 -14.806  23.681  0.00  0.00    +0.150 HD
BRANCH   6  10
ATOM     10  CA  ASN A   1     -21.578 -14.660  26.335  0.00  0.00    +0.154 C 
BRANCH  10  11
ATOM     11  N   ASN A   1     -20.523 -15.610  26.733  0.00  0.00    -0.238 NA
ATOM     12  H   ASN A   1     -19.575 -15.254  26.970  0.00  0.00    +0.142 HD
ENDBRANCH  10  11
BRANCH  10  13
ATOM     13  CB  ASN A   1     -22.000 -13.768  27.519  0.00  0.00    +0.111 C 
BRANCH  13  14
ATOM     14  CG  ASN A   1     -22.811 -14.485  28.564  0.00  0.00    +0.221 C 
ATOM     15  ND2 ASN A   1     -22.174 -15.374  29.290  0.00  0.00    -0.329 N 
ATOM     16 HD21 ASN A   1     -22.662 -15.849  30.076  0.00  0.00    +0.145 HD
ATOM     17 HD22 ASN A   1     -21.182 -15.603  29.079  0.00  0.00    +0.145 HD
ATOM     18  OD1 ASN A   1     -23.992 -14.180  28.777  0.00  0.00    -0.275 OA
ENDBRANCH  13  14
ENDBRANCH  10  13
ENDBRANCH   6  10
ENDBRANCH   5   8
ENDBRANCH   1   5
BRANCH   2  19
ATOM     19  CA  ASP A   3     -16.866 -12.326  23.338  0.00  0.00    +0.160 C 
BRANCH  19  20
ATOM     20  C   ASP A   3     -16.363 -12.487  24.778  0.00  0.00    +0.241 C 
ATOM     21  N   ASP A   4     -17.283 -12.572  25.734  0.00  0.00    -0.298 N 
ATOM     22  H   ASP A   4     -18.287 -12.520  25.467  0.00  0.00    +0.150 HD
ATOM     23  O   ASP A   3     -15.131 -12.515  25.004  0.00  0.00    -0.273 OA
BRANCH  21  24
ATOM     24  CA  ASP A   4     -16.943 -12.735  27.138  0.00  0.00    +0.148 C 
BRANCH  24  25
ATOM     25  C   ASP A   4     -16.868 -14.215  27.452  0.00  0.00    +0.227 C 
ATOM     26  O   ASP A   4     -17.798 -14.994  27.210  0.00  0.00    -0.286 OA
ENDBRANCH  24  25
BRANCH  24  27
ATOM     27  CB  ASP A   4     -17.959 -12.028  28.032  0.00  0.00    +0.142 C 
BRANCH  27  28
ATOM     28  CG  ASP A   4     -17.403 -11.721  29.432  0.00  0.00    +0.367 C 
ATOM     29  OD2 ASP A   4     -17.322 -12.663  30.275  0.00  0.00    -0.246 OA
ATOM     30  OD1 ASP A   4     -17.076 -10.539  29.697  0.00  0.00    -0.246 OA
ENDBRANCH  27  28
ENDBRANCH  24  27
ENDBRANCH  21  24
ENDBRANCH  19  20
BRANCH  19  31
ATOM     31  CB  ASP A   3     -16.222 -11.065  22.706  0.00  0.00    +0.143 C 
BRANCH  31  32
ATOM     32  CG  ASP A   3     -16.466  -9.771  23.520  0.00  0.00    +0.367 C 
ATOM     33  OD2 ASP A   3     -17.133  -9.808  24.566  0.00  0.00    -0.246 OA
ATOM     34  OD1 ASP A   3     -15.964  -8.698  23.120  0.00  0.00    -0.246 OA
ENDBRANCH  31  32
ENDBRANCH  19  31
ENDBRANCH   2  19
TORSDOF 14
REMARK  Name = ../refined-set-2016/3hky/3hky_pocket.pdb
REMARK  262 active torsions:
REMARK  status: ('A' for Active; 'I' for Inactive)
REMARK    1  A    between atoms: _1  and  _3
REMARK    2  A    between atoms: _3  and  _4
REMARK    3  A    between atoms: _3  and  _6
REMARK    4  A    between atoms: _6  and  _7
REMARK    5  A    between atoms: _7  and  _8
REMARK    6  A    between atoms: _8  and  _9
REMARK    7  A    between atoms: _9  and  _10
REMARK    8  A    between atoms: _14  and  _16
REMARK    9  A    between atoms: _16  and  _17
REMARK   10  A    between atoms: _16  and  _19
REMARK   11  A    between atoms: _19  and  _20
REMARK   12  A    between atoms: _20  and  _21
REMARK   13  A    between atoms: _24  and  _26
REMARK   14  A    between atoms: _26  and  _27
REMARK   15  A    between atoms: _26  and  _29
REMARK   16  A    between atoms: _29  and  _30
REMARK   17  A    between atoms: _30  and  _31
REMARK   18  A    between atoms: _31  and  _32
REMARK   19  A    between atoms: _41  and  _43
REMARK   20  A    between atoms: _43  and  _44
REMARK   21  A    between atoms: _46  and  _48
REMARK   22  A    between atoms: _48  and  _49
REMARK   23  A    between atoms: _48  and  _51
REMARK   24  A    between atoms: _51  and  _52
REMARK   25  A    between atoms: _58  and  _60
REMARK   26  A    between atoms: _60  and  _61
REMARK   27  A    between atoms: _60  and  _63
REMARK   28  A    between atoms: _63  and  _64
REMARK   29  A    between atoms: _69  and  _70
REMARK   30  A    between atoms: _72  and  _74
REMARK   31  A    between atoms: _74  and  _75
REMARK   32  A    between atoms: _74  and  _77
REMARK   33  A    between atoms: _77  and  _78
REMARK   34  A    between atoms: _81  and  _82
REMARK   35  A    between atoms: _87  and  _89
REMARK   36  A    between atoms: _89  and  _90
REMARK   37  A    between atoms: _89  and  _92
REMARK   38  A    between atoms: _92  and  _93
REMARK   39  A    between atoms: _93  and  _94
REMARK   40  A    between atoms: _94  and  _95
REMARK   41  A    between atoms: _95  and  _96
REMARK   42  A    between atoms: _100  and  _102
REMARK   43  A    between atoms: _102  and  _103
REMARK   44  A    between atoms: _102  and  _105
REMARK   45  A    between atoms: _105  and  _106
REMARK   46  A    between atoms: _106  and  _107
REMARK   47  A    between atoms: _112  and  _114
REMARK   48  A    between atoms: _114  and  _115
REMARK   49  A    between atoms: _114  and  _117
REMARK   50  A    between atoms: _117  and  _118
REMARK   51  A    between atoms: _118  and  _119
REMARK   52  A    between atoms: _119  and  _120
REMARK   53  A    between atoms: _129  and  _131
REMARK   54  A    between atoms: _131  and  _132
REMARK   55  A    between atoms: _131  and  _134
REMARK   56  A    between atoms: _137  and  _139
REMARK   57  A    between atoms: _139  and  _140
REMARK   58  A    between atoms: _139  and  _142
REMARK   59  A    between atoms: _142  and  _143
REMARK   60  A    between atoms: _146  and  _148
REMARK   61  A    between atoms: _148  and  _149
REMARK   62  A    between atoms: _148  and  _151
REMARK   63  A    between atoms: _151  and  _152
REMARK   64  A    between atoms: _155  and  _157
REMARK   65  A    between atoms: _157  and  _158
REMARK   66  A    between atoms: _157  and  _160
REMARK   67  A    between atoms: _160  and  _161
REMARK   68  A    between atoms: _163  and  _165
REMARK   69  A    between atoms: _165  and  _166
REMARK   70  A    between atoms: _165  and  _168
REMARK   71  A    between atoms: _168  and  _169
REMARK   72  A    between atoms: _172  and  _174
REMARK   73  A    between atoms: _174  and  _175
REMARK   74  A    between atoms: _174  and  _177
REMARK   75  A    between atoms: _177  and  _178
REMARK   76  A    between atoms: _180  and  _182
REMARK   77  A    between atoms: _182  and  _183
REMARK   78  A    between atoms: _182  and  _185
REMARK   79  A    between atoms: _185  and  _186
REMARK   80  A    between atoms: _191  and  _193
REMARK   81  A    between atoms: _193  and  _194
REMARK   82  A    between atoms: _193  and  _196
REMARK   83  A    between atoms: _196  and  _197
REMARK   84  A    between atoms: _200  and  _202
REMARK   85  A    between atoms: _202  and  _203
REMARK   86  A    between atoms: _202  and  _205
REMARK   87  A    between atoms: _205  and  _206
REMARK   88  A    between atoms: _211  and  _213
REMARK   89  A    between atoms: _213  and  _214
REMARK   90  A    between atoms: _216  and  _218
REMARK   91  A    between atoms: _218  and  _219
REMARK   92  A    between atoms: _218  and  _221
REMARK   93  A    between atoms: _221  and  _222
REMARK   94  A    between atoms: _225  and  _227
REMARK   95  A    between atoms: _227  and  _228
REMARK   96  A    between atoms: _227  and  _230
REMARK   97  A    between atoms: _230  and  _231
REMARK   98  A    between atoms: _234  and  _236
REMARK   99  A    between atoms: _236  and  _237
REMARK  100  A    between atoms: _236  and  _239
REMARK  101  A    between atoms: _239  and  _240
REMARK  102  A    between atoms: _242  and  _244
REMARK  103  A    between atoms: _244  and  _245
REMARK  104  A    between atoms: _244  and  _247
REMARK  105  A    between atoms: _249  and  _251
REMARK  106  A    between atoms: _251  and  _252
REMARK  107  A    between atoms: _251  and  _254
REMARK  108  A    between atoms: _254  and  _255
REMARK  109  A    between atoms: _257  and  _259
REMARK  110  A    between atoms: _259  and  _260
REMARK  111  A    between atoms: _259  and  _262
REMARK  112  A    between atoms: _262  and  _263
REMARK  113  A    between atoms: _265  and  _267
REMARK  114  A    between atoms: _267  and  _268
REMARK  115  A    between atoms: _267  and  _270
REMARK  116  A    between atoms: _270  and  _271
REMARK  117  A    between atoms: _276  and  _278
REMARK  118  A    between atoms: _278  and  _279
REMARK  119  A    between atoms: _278  and  _281
REMARK  120  A    between atoms: _281  and  _282
REMARK  121  A    between atoms: _287  and  _288
REMARK  122  A    between atoms: _290  and  _292
REMARK  123  A    between atoms: _292  and  _293
REMARK  124  A    between atoms: _292  and  _295
REMARK  125  A    between atoms: _295  and  _296
REMARK  126  A    between atoms: _299  and  _301
REMARK  127  A    between atoms: _301  and  _302
REMARK  128  A    between atoms: _301  and  _304
REMARK  129  A    between atoms: _304  and  _305
REMARK  130  A    between atoms: _308  and  _310
REMARK  131  A    between atoms: _310  and  _311
REMARK  132  A    between atoms: _310  and  _313
REMARK  133  A    between atoms: _313  and  _314
REMARK  134  A    between atoms: _314  and  _315
REMARK  135  A    between atoms: _315  and  _316
REMARK  136  A    between atoms: _326  and  _327
REMARK  137  A    between atoms: _332  and  _334
REMARK  138  A    between atoms: _334  and  _335
REMARK  139  A    between atoms: _334  and  _337
REMARK  140  A    between atoms: _337  and  _338
REMARK  141  A    between atoms: _338  and  _339
REMARK  142  A    between atoms: _339  and  _340
REMARK  143  A    between atoms: _349  and  _351
REMARK  144  A    between atoms: _351  and  _352
REMARK  145  A    between atoms: _351  and  _354
REMARK  146  A    between atoms: _354  and  _355
REMARK  147  A    between atoms: _355  and  _356
REMARK  148  A    between atoms: _359  and  _361
REMARK  149  A    between atoms: _361  and  _362
REMARK  150  A    between atoms: _361  and  _364
REMARK  151  A    between atoms: _364  and  _365
REMARK  152  A    between atoms: _368  and  _370
REMARK  153  A    between atoms: _370  and  _371
REMARK  154  A    between atoms: _370  and  _373
REMARK  155  A    between atoms: _373  and  _374
REMARK  156  A    between atoms: _379  and  _381
REMARK  157  A    between atoms: _381  and  _382
REMARK  158  A    between atoms: _381  and  _384
REMARK  159  A    between atoms: _384  and  _385
REMARK  160  A    between atoms: _387  and  _389
REMARK  161  A    between atoms: _389  and  _390
REMARK  162  A    between atoms: _389  and  _392
REMARK  163  A    between atoms: _392  and  _393
REMARK  164  A    between atoms: _403  and  _405
REMARK  165  A    between atoms: _405  and  _406
REMARK  166  A    between atoms: _405  and  _408
REMARK  167  A    between atoms: _408  and  _409
REMARK  168  A    between atoms: _412  and  _414
REMARK  169  A    between atoms: _414  and  _415
REMARK  170  A    between atoms: _417  and  _419
REMARK  171  A    between atoms: _419  and  _420
REMARK  172  A    between atoms: _419  and  _422
REMARK  173  A    between atoms: _422  and  _423
REMARK  174  A    between atoms: _428  and  _430
REMARK  175  A    between atoms: _430  and  _431
REMARK  176  A    between atoms: _430  and  _433
REMARK  177  A    between atoms: _433  and  _434
REMARK  178  A    between atoms: _437  and  _439
REMARK  179  A    between atoms: _439  and  _440
REMARK  180  A    between atoms: _439  and  _442
REMARK  181  A    between atoms: _442  and  _443
REMARK  182  A    between atoms: _446  and  _448
REMARK  183  A    between atoms: _448  and  _449
REMARK  184  A    between atoms: _448  and  _451
REMARK  185  A    between atoms: _451  and  _452
REMARK  186  A    between atoms: _452  and  _453
REMARK  187  A    between atoms: _455  and  _457
REMARK  188  A    between atoms: _457  and  _458
REMARK  189  A    between atoms: _457  and  _460
REMARK  190  A    between atoms: _460  and  _461
REMARK  191  A    between atoms: _466  and  _467
REMARK  192  A    between atoms: _469  and  _471
REMARK  193  A    between atoms: _471  and  _472
REMARK  194  A    between atoms: _476  and  _477
REMARK  195  A    between atoms: _482  and  _484
REMARK  196  A    between atoms: _484  and  _485
REMARK  197  A    between atoms: _484  and  _487
REMARK  198  A    between atoms: _487  and  _488
REMARK  199  A    between atoms: _491  and  _493
REMARK  200  A    between atoms: _493  and  _494
REMARK  201  A    between atoms: _493  and  _496
REMARK  202  A    between atoms: _496  and  _497
REMARK  203  A    between atoms: _507  and  _509
REMARK  204  A    between atoms: _509  and  _510
REMARK  205  A    between atoms: _509  and  _512
REMARK  206  A    between atoms: _514  and  _516
REMARK  207  A    between atoms: _516  and  _517
REMARK  208  A    between atoms: _516  and  _519
REMARK  209  A    between atoms: _519  and  _520
REMARK  210  A    between atoms: _520  and  _521
REMARK  211  A    between atoms: _526  and  _528
REMARK  212  A    between atoms: _528  and  _529
REMARK  213  A    between atoms: _528  and  _531
REMARK  214  A    between atoms: _531  and  _532
REMARK  215  A    between atoms: _535  and  _537
REMARK  216  A    between atoms: _537  and  _538
REMARK  217  A    between atoms: _537  and  _540
REMARK  218  A    between atoms: _540  and  _541
REMARK  219  A    between atoms: _546  and  _547
REMARK  220  A    between atoms: _549  and  _551
REMARK  221  A    between atoms: _551  and  _552
REMARK  222  A    between atoms: _554  and  _556
REMARK  223  A    between atoms: _556  and  _557
REMARK  224  A    between atoms: _560  and  _562
REMARK  225  A    between atoms: _562  and  _563
REMARK  226  A    between atoms: _562  and  _565
REMARK  227  A    between atoms: _567  and  _569
REMARK  228  A    between atoms: _569  and  _570
REMARK  229  A    between atoms: _569  and  _572
REMARK  230  A    between atoms: _572  and  _573
REMARK  231  A    between atoms: _578  and  _579
REMARK  232  A    between atoms: _581  and  _583
REMARK  233  A    between atoms: _583  and  _584
REMARK  234  A    between atoms: _583  and  _586
REMARK  235  A    between atoms: _586  and  _587
REMARK  236  A    between atoms: _590  and  _592
REMARK  237  A    between atoms: _592  and  _593
REMARK  238  A    between atoms: _592  and  _595
REMARK  239  A    between atoms: _595  and  _596
REMARK  240  A    between atoms: _601  and  _603
REMARK  241  A    between atoms: _603  and  _604
REMARK  242  A    between atoms: _603  and  _606
REMARK  243  A    between atoms: _606  and  _607
REMARK  244  A    between atoms: _617  and  _619
REMARK  245  A    between atoms: _619  and  _620
REMARK  246  A    between atoms: _619  and  _622
REMARK  247  A    between atoms: _622  and  _623
REMARK  248  A    between atoms: _629  and  _631
REMARK  249  A    between atoms: _631  and  _632
REMARK  250  A    between atoms: _635  and  _637
REMARK  251  A    between atoms: _637  and  _638
REMARK  252  A    between atoms: _640  and  _642
REMARK  253  A    between atoms: _642  and  _643
REMARK  254  A    between atoms: _642  and  _645
REMARK  255  A    between atoms: _645  and  _646
REMARK  256  A    between atoms: _651  and  _652
REMARK  257  A    between atoms: _654  and  _656
REMARK  258  A    between atoms: _656  and  _657
REMARK  259  A    between atoms: _656  and  _659
REMARK  260  A    between atoms: _659  and  _660
REMARK  261  A    between atoms: _662  and  _664
REMARK  262  A    between atoms: _664  and  _665
REMARK                            x       y       z     vdW  Elec       q    Type
REMARK                         _______ _______ _______ _____ _____    ______ ____
ROOT
ATOM      1  CA  SER A   3     -18.472  -6.991  34.048  0.00  0.00    +0.178 C 
ENDROOT
BRANCH   1   4
ATOM      2  C   CYS A   2     -19.850  -8.666  32.860  0.00  0.00    +0.242 C 
ATOM      3  O   CYS A   2     -20.924  -8.305  33.357  0.00  0.00    -0.273 OA
ATOM      4  N   SER A   3     -18.668  -8.122  33.149  0.00  0.00    -0.295 N 
ATOM      5  H   SER A   3     -17.825  -8.534  32.701  0.00  0.00    +0.150 HD
BRANCH   2   6
ATOM      6  CA  CYS A   2     -19.791  -9.828  31.865  0.00  0.00    +0.160 C 
BRANCH   6   9
ATOM      7  C   SER A   1     -18.394 -11.211  33.380  0.00  0.00    +0.241 C 
ATOM      8  O   SER A   1     -19.123 -11.070  34.354  0.00  0.00    -0.274 OA
ATOM      9  N   CYS A   2     -18.691 -10.763  32.162  0.00  0.00    -0.296 N 
ATOM     10  H   CYS A   2     -18.108 -11.095  31.367  0.00  0.00    +0.150 HD
BRANCH   7  11
ATOM     11  CA  SER A   1     -17.074 -11.930  33.539  0.00  0.00    +0.174 C 
BRANCH  11  12
ATOM     12  N   SER A   1     -16.515 -11.502  34.811  0.00  0.00    -0.236 NA
ATOM     13  H   SER A   1     -17.170 -11.364  35.607  0.00  0.00    +0.142 HD
ENDBRANCH  11  12
BRANCH  11  14
ATOM     14  CB  SER A   1     -17.353 -13.433  33.532  0.00  0.00    +0.163 C 
BRANCH  14  15
ATOM     15  OG  SER A   1     -18.182 -13.831  34.626  0.00  0.00    -0.380 OA
ATOM     16  H   SER A   1     -19.049 -13.356  34.572  0.00  0.00    +0.211 HD
ENDBRANCH  14  15
ENDBRANCH  11  14
ENDBRANCH   7  11
ENDBRANCH   6   9
BRANCH   6  17
ATOM     17  CB  CYS A   2     -21.116 -10.561  31.800  0.00  0.00    +0.098 C 
ATOM     18  SG  CYS A   2     -21.156 -11.744  30.434  0.00  0.00    -0.080 S 
ENDBRANCH   6  17
ENDBRANCH   2   6
ENDBRANCH   1   4
BRANCH   1  19
ATOM     19  C   SER A   3     -18.639  -7.319  35.523  0.00  0.00    +0.243 C 
ATOM     20  O   SER A   3     -18.485  -6.444  36.365  0.00  0.00    -0.273 OA
ATOM     21  N   SER A   4     -18.923  -8.580  35.832  0.00  0.00    -0.295 N 
ATOM     22  H   SER A   4     -18.721  -9.330  35.140  0.00  0.00    +0.150 HD
BRANCH  21  23
ATOM     23  CA  SER A   4     -19.505  -8.934  37.104  0.00  0.00    +0.178 C 
BRANCH  23  24
ATOM     24  C   SER A   4     -18.687  -9.968  37.855  0.00  0.00    +0.243 C 
ATOM     25  N   ASN A   5     -18.788  -9.909  39.179  0.00  0.00    -0.298 N 
ATOM     26  H   ASN A   5     -19.360  -9.153  39.607  0.00  0.00    +0.150 HD
ATOM     27  O   SER A   4     -17.947 -10.759  37.260  0.00  0.00    -0.273 OA
BRANCH  25  28
ATOM     28  CA  ASN A   5     -18.126 -10.865  40.047  0.00  0.00    +0.146 C 
BRANCH  28  29
ATOM     29  C   ASN A   5     -19.079 -11.413  41.100  0.00  0.00    +0.227 C 
ATOM     30  O   ASN A   5     -20.032 -10.752  41.510  0.00  0.00    -0.286 OA
ENDBRANCH  28  29
BRANCH  28  31
ATOM     31  CB  ASN A   5     -16.857 -10.270  40.682  0.00  0.00    +0.112 C 
BRANCH  31  32
ATOM     32  CG  ASN A   5     -17.148  -9.218  41.754  0.00  0.00    +0.222 C 
ATOM     33  ND2 ASN A   5     -17.123  -9.615  43.019  0.00  0.00    -0.329 N 
ATOM     34 HD21 ASN A   5     -17.257  -8.923  43.784  0.00  0.00    +0.145 HD
ATOM     35 HD22 ASN A   5     -16.970 -10.618  43.246  0.00  0.00    +0.145 HD
ATOM     36  OD1 ASN A   5     -17.324  -8.055  41.438  0.00  0.00    -0.275 OA
ENDBRANCH  31  32
ENDBRANCH  28  31
ENDBRANCH  25  28
ENDBRANCH  23  24
BRANCH  23  37
ATOM     37  CB  SER A   4     -20.928  -9.434  36.892  0.00  0.00    +0.166 C 
BRANCH  37  38
ATOM     38  OG  SER A   4     -21.652  -8.500  36.100  0.00  0.00    -0.380 OA
ATOM     39  H   SER A   4     -21.206  -8.397  35.222  0.00  0.00    +0.211 HD
ENDBRANCH  37  38
ENDBRANCH  23  37
ENDBRANCH  21  23
ENDBRANCH   1  19
BRANCH   1  40
ATOM     40  CB  SER A   3     -19.418  -5.849  33.715  0.00  0.00    +0.166 C 
BRANCH  40  41
ATOM     41  OG  SER A   3     -19.295  -5.457  32.372  0.00  0.00    -0.380 OA
ATOM     42  H   SER A   3     -19.922  -4.714  32.188  0.00  0.00    +0.211 HD
ENDBRANCH  40  41
ENDBRANCH   1  40
TORSDOF 19
REMARK  Name = ../refined-set-2016/3hky/3hky_pocket.pdb
REMARK  262 active torsions:
REMARK  status: ('A' for Active; 'I' for Inactive)
REMARK    1  A    between atoms: _1  and  _3
REMARK    2  A    between atoms: _3  and  _4
REMARK    3  A    between atoms: _3  and  _6
REMARK    4  A    between atoms: _6  and  _7
REMARK    5  A    between atoms: _7  and  _8
REMARK    6  A    between atoms: _8  and  _9
REMARK    7  A    between atoms: _9  and  _10
REMARK    8  A    between atoms: _14  and  _16
REMARK    9  A    between atoms: _16  and  _17
REMARK   10  A    between atoms: _16  and  _19
REMARK   11  A    between atoms: _19  and  _20
REMARK   12  A    between atoms: _20  and  _21
REMARK   13  A    between atoms: _24  and  _26
REMARK   14  A    between atoms: _26  and  _27
REMARK   15  A    between atoms: _26  and  _29
REMARK   16  A    between atoms: _29  and  _30
REMARK   17  A    between atoms: _30  and  _31
REMARK   18  A    between atoms: _31  and  _32
REMARK   19  A    between atoms: _41  and  _43
REMARK   20  A    between atoms: _43  and  _44
REMARK   21  A    between atoms: _46  and  _48
REMARK   22  A    between atoms: _48  and  _49
REMARK   23  A    between atoms: _48  and  _51
REMARK   24  A    between atoms: _51  and  _52
REMARK   25  A    between atoms: _58  and  _60
REMARK   26  A    between atoms: _60  and  _61
REMARK   27  A    between atoms: _60  and  _63
REMARK   28  A    between atoms: _63  and  _64
REMARK   29  A    between atoms: _69  and  _70
REMARK   30  A    between atoms: _72  and  _74
REMARK   31  A    between atoms: _74  and  _75
REMARK   32  A    between atoms: _74  and  _77
REMARK   33  A    between atoms: _77  and  _78
REMARK   34  A    between atoms: _81  and  _82
REMARK   35  A    between atoms: _87  and  _89
REMARK   36  A    between atoms: _89  and  _90
REMARK   37  A    between atoms: _89  and  _92
REMARK   38  A    between atoms: _92  and  _93
REMARK   39  A    between atoms: _93  and  _94
REMARK   40  A    between atoms: _94  and  _95
REMARK   41  A    between atoms: _95  and  _96
REMARK   42  A    between atoms: _100  and  _102
REMARK   43  A    between atoms: _102  and  _103
REMARK   44  A    between atoms: _102  and  _105
REMARK   45  A    between atoms: _105  and  _106
REMARK   46  A    between atoms: _106  and  _107
REMARK   47  A    between atoms: _112  and  _114
REMARK   48  A    between atoms: _114  and  _115
REMARK   49  A    between atoms: _114  and  _117
REMARK   50  A    between atoms: _117  and  _118
REMARK   51  A    between atoms: _118  and  _119
REMARK   52  A    between atoms: _119  and  _120
REMARK   53  A    between atoms: _129  and  _131
REMARK   54  A    between atoms: _131  and  _132
REMARK   55  A    between atoms: _131  and  _134
REMARK   56  A    between atoms: _137  and  _139
REMARK   57  A    between atoms: _139  and  _140
REMARK   58  A    between atoms: _139  and  _142
REMARK   59  A    between atoms: _142  and  _143
REMARK   60  A    between atoms: _146  and  _148
REMARK   61  A    between atoms: _148  and  _149
REMARK   62  A    between atoms: _148  and  _151
REMARK   63  A    between atoms: _151  and  _152
REMARK   64  A    between atoms: _155  and  _157
REMARK   65  A    between atoms: _157  and  _158
REMARK   66  A    between atoms: _157  and  _160
REMARK   67  A    between atoms: _160  and  _161
REMARK   68  A    between atoms: _163  and  _165
REMARK   69  A    between atoms: _165  and  _166
REMARK   70  A    between atoms: _165  and  _168
REMARK   71  A    between atoms: _168  and  _169
REMARK   72  A    between atoms: _172  and  _174
REMARK   73  A    between atoms: _174  and  _175
REMARK   74  A    between atoms: _174  and  _177
REMARK   75  A    between atoms: _177  and  _178
REMARK   76  A    between atoms: _180  and  _182
REMARK   77  A    between atoms: _182  and  _183
REMARK   78  A    between atoms: _182  and  _185
REMARK   79  A    between atoms: _185  and  _186
REMARK   80  A    between atoms: _191  and  _193
REMARK   81  A    between atoms: _193  and  _194
REMARK   82  A    between atoms: _193  and  _196
REMARK   83  A    between atoms: _196  and  _197
REMARK   84  A    between atoms: _200  and  _202
REMARK   85  A    between atoms: _202  and  _203
REMARK   86  A    between atoms: _202  and  _205
REMARK   87  A    between atoms: _205  and  _206
REMARK   88  A    between atoms: _211  and  _213
REMARK   89  A    between atoms: _213  and  _214
REMARK   90  A    between atoms: _216  and  _218
REMARK   91  A    between atoms: _218  and  _219
REMARK   92  A    between atoms: _218  and  _221
REMARK   93  A    between atoms: _221  and  _222
REMARK   94  A    between atoms: _225  and  _227
REMARK   95  A    between atoms: _227  and  _228
REMARK   96  A    between atoms: _227  and  _230
REMARK   97  A    between atoms: _230  and  _231
REMARK   98  A    between atoms: _234  and  _236
REMARK   99  A    between atoms: _236  and  _237
REMARK  100  A    between atoms: _236  and  _239
REMARK  101  A    between atoms: _239  and  _240
REMARK  102  A    between atoms: _242  and  _244
REMARK  103  A    between atoms: _244  and  _245
REMARK  104  A    between atoms: _244  and  _247
REMARK  105  A    between atoms: _249  and  _251
REMARK  106  A    between atoms: _251  and  _252
REMARK  107  A    between atoms: _251  and  _254
REMARK  108  A    between atoms: _254  and  _255
REMARK  109  A    between atoms: _257  and  _259
REMARK  110  A    between atoms: _259  and  _260
REMARK  111  A    between atoms: _259  and  _262
REMARK  112  A    between atoms: _262  and  _263
REMARK  113  A    between atoms: _265  and  _267
REMARK  114  A    between atoms: _267  and  _268
REMARK  115  A    between atoms: _267  and  _270
REMARK  116  A    between atoms: _270  and  _271
REMARK  117  A    between atoms: _276  and  _278
REMARK  118  A    between atoms: _278  and  _279
REMARK  119  A    between atoms: _278  and  _281
REMARK  120  A    between atoms: _281  and  _282
REMARK  121  A    between atoms: _287  and  _288
REMARK  122  A    between atoms: _290  and  _292
REMARK  123  A    between atoms: _292  and  _293
REMARK  124  A    between atoms: _292  and  _295
REMARK  125  A    between atoms: _295  and  _296
REMARK  126  A    between atoms: _299  and  _301
REMARK  127  A    between atoms: _301  and  _302
REMARK  128  A    between atoms: _301  and  _304
REMARK  129  A    between atoms: _304  and  _305
REMARK  130  A    between atoms: _308  and  _310
REMARK  131  A    between atoms: _310  and  _311
REMARK  132  A    between atoms: _310  and  _313
REMARK  133  A    between atoms: _313  and  _314
REMARK  134  A    between atoms: _314  and  _315
REMARK  135  A    between atoms: _315  and  _316
REMARK  136  A    between atoms: _326  and  _327
REMARK  137  A    between atoms: _332  and  _334
REMARK  138  A    between atoms: _334  and  _335
REMARK  139  A    between atoms: _334  and  _337
REMARK  140  A    between atoms: _337  and  _338
REMARK  141  A    between atoms: _338  and  _339
REMARK  142  A    between atoms: _339  and  _340
REMARK  143  A    between atoms: _349  and  _351
REMARK  144  A    between atoms: _351  and  _352
REMARK  145  A    between atoms: _351  and  _354
REMARK  146  A    between atoms: _354  and  _355
REMARK  147  A    between atoms: _355  and  _356
REMARK  148  A    between atoms: _359  and  _361
REMARK  149  A    between atoms: _361  and  _362
REMARK  150  A    between atoms: _361  and  _364
REMARK  151  A    between atoms: _364  and  _365
REMARK  152  A    between atoms: _368  and  _370
REMARK  153  A    between atoms: _370  and  _371
REMARK  154  A    between atoms: _370  and  _373
REMARK  155  A    between atoms: _373  and  _374
REMARK  156  A    between atoms: _379  and  _381
REMARK  157  A    between atoms: _381  and  _382
REMARK  158  A    between atoms: _381  and  _384
REMARK  159  A    between atoms: _384  and  _385
REMARK  160  A    between atoms: _387  and  _389
REMARK  161  A    between atoms: _389  and  _390
REMARK  162  A    between atoms: _389  and  _392
REMARK  163  A    between atoms: _392  and  _393
REMARK  164  A    between atoms: _403  and  _405
REMARK  165  A    between atoms: _405  and  _406
REMARK  166  A    between atoms: _405  and  _408
REMARK  167  A    between atoms: _408  and  _409
REMARK  168  A    between atoms: _412  and  _414
REMARK  169  A    between atoms: _414  and  _415
REMARK  170  A    between atoms: _417  and  _419
REMARK  171  A    between atoms: _419  and  _420
REMARK  172  A    between atoms: _419  and  _422
REMARK  173  A    between atoms: _422  and  _423
REMARK  174  A    between atoms: _428  and  _430
REMARK  175  A    between atoms: _430  and  _431
REMARK  176  A    between atoms: _430  and  _433
REMARK  177  A    between atoms: _433  and  _434
REMARK  178  A    between atoms: _437  and  _439
REMARK  179  A    between atoms: _439  and  _440
REMARK  180  A    between atoms: _439  and  _442
REMARK  181  A    between atoms: _442  and  _443
REMARK  182  A    between atoms: _446  and  _448
REMARK  183  A    between atoms: _448  and  _449
REMARK  184  A    between atoms: _448  and  _451
REMARK  185  A    between atoms: _451  and  _452
REMARK  186  A    between atoms: _452  and  _453
REMARK  187  A    between atoms: _455  and  _457
REMARK  188  A    between atoms: _457  and  _458
REMARK  189  A    between atoms: _457  and  _460
REMARK  190  A    between atoms: _460  and  _461
REMARK  191  A    between atoms: _466  and  _467
REMARK  192  A    between atoms: _469  and  _471
REMARK  193  A    between atoms: _471  and  _472
REMARK  194  A    between atoms: _476  and  _477
REMARK  195  A    between atoms: _482  and  _484
REMARK  196  A    between atoms: _484  and  _485
REMARK  197  A    between atoms: _484  and  _487
REMARK  198  A    between atoms: _487  and  _488
REMARK  199  A    between atoms: _491  and  _493
REMARK  200  A    between atoms: _493  and  _494
REMARK  201  A    between atoms: _493  and  _496
REMARK  202  A    between atoms: _496  and  _497
REMARK  203  A    between atoms: _507  and  _509
REMARK  204  A    between atoms: _509  and  _510
REMARK  205  A    between atoms: _509  and  _512
REMARK  206  A    between atoms: _514  and  _516
REMARK  207  A    between atoms: _516  and  _517
REMARK  208  A    between atoms: _516  and  _519
REMARK  209  A    between atoms: _519  and  _520
REMARK  210  A    between atoms: _520  and  _521
REMARK  211  A    between atoms: _526  and  _528
REMARK  212  A    between atoms: _528  and  _529
REMARK  213  A    between atoms: _528  and  _531
REMARK  214  A    between atoms: _531  and  _532
REMARK  215  A    between atoms: _535  and  _537
REMARK  216  A    between atoms: _537  and  _538
REMARK  217  A    between atoms: _537  and  _540
REMARK  218  A    between atoms: _540  and  _541
REMARK  219  A    between atoms: _546  and  _547
REMARK  220  A    between atoms: _549  and  _551
REMARK  221  A    between atoms: _551  and  _552
REMARK  222  A    between atoms: _554  and  _556
REMARK  223  A    between atoms: _556  and  _557
REMARK  224  A    between atoms: _560  and  _562
REMARK  225  A    between atoms: _562  and  _563
REMARK  226  A    between atoms: _562  and  _565
REMARK  227  A    between atoms: _567  and  _569
REMARK  228  A    between atoms: _569  and  _570
REMARK  229  A    between atoms: _569  and  _572
REMARK  230  A    between atoms: _572  and  _573
REMARK  231  A    between atoms: _578  and  _579
REMARK  232  A    between atoms: _581  and  _583
REMARK  233  A    between atoms: _583  and  _584
REMARK  234  A    between atoms: _583  and  _586
REMARK  235  A    between atoms: _586  and  _587
REMARK  236  A    between atoms: _590  and  _592
REMARK  237  A    between atoms: _592  and  _593
REMARK  238  A    between atoms: _592  and  _595
REMARK  239  A    between atoms: _595  and  _596
REMARK  240  A    between atoms: _601  and  _603
REMARK  241  A    between atoms: _603  and  _604
REMARK  242  A    between atoms: _603  and  _606
REMARK  243  A    between atoms: _606  and  _607
REMARK  244  A    between atoms: _617  and  _619
REMARK  245  A    between atoms: _619  and  _620
REMARK  246  A    between atoms: _619  and  _622
REMARK  247  A    between atoms: _622  and  _623
REMARK  248  A    between atoms: _629  and  _631
REMARK  249  A    between atoms: _631  and  _632
REMARK  250  A    between atoms: _635  and  _637
REMARK  251  A    between atoms: _637  and  _638
REMARK  252  A    between atoms: _640  and  _642
REMARK  253  A    between atoms: _642  and  _643
REMARK  254  A    between atoms: _642  and  _645
REMARK  255  A    between atoms: _645  and  _646
REMARK  256  A    between atoms: _651  and  _652
REMARK  257  A    between atoms: _654  and  _656
REMARK  258  A    between atoms: _656  and  _657
REMARK  259  A    between atoms: _656  and  _659
REMARK  260  A    between atoms: _659  and  _660
REMARK  261  A    between atoms: _662  and  _664
REMARK  262  A    between atoms: _664  and  _665
REMARK                            x       y       z     vdW  Elec       q    Type
REMARK                         _______ _______ _______ _____ _____    ______ ____
ROOT
ATOM      1  C   LEU A   2     -23.488  -9.599  41.358  0.00  0.00    +0.241 C 
ATOM      2  N   THR A   3     -22.327  -8.989  41.441  0.00  0.00    -0.295 N 
ATOM      3  H   THR A   3     -21.453  -9.552  41.410  0.00  0.00    +0.150 HD
ATOM      4  O   LEU A   2     -24.561  -8.994  41.429  0.00  0.00    -0.273 OA
ENDROOT
BRANCH   2   5
ATOM      5  CA  THR A   3     -22.237  -7.548  41.575  0.00  0.00    +0.176 C 
BRANCH   5   6
ATOM      6  C   THR A   3     -21.170  -7.050  40.582  0.00  0.00    +0.243 C 
ATOM      7  N   ARG A   4     -20.924  -5.752  40.594  0.00  0.00    -0.298 N 
ATOM      8  H   ARG A   4     -21.470  -5.151  41.243  0.00  0.00    +0.150 HD
ATOM      9  O   THR A   3     -20.663  -7.814  39.784  0.00  0.00    -0.273 OA
BRANCH   7  10
ATOM     10  CA  ARG A   4     -19.938  -5.131  39.753  0.00  0.00    +0.137 C 
BRANCH  10  11
ATOM     11  C   ARG A   4     -19.630  -3.782  40.376  0.00  0.00    +0.227 C 
ATOM     12  O   ARG A   4     -20.400  -3.265  41.209  0.00  0.00    -0.286 OA
ENDBRANCH  10  11
BRANCH  10  13
ATOM     13  CB  ARG A   4     -20.448  -4.939  38.300  0.00  0.00    +0.031 C 
BRANCH  13  14
ATOM     14  CG  ARG A   4     -21.689  -4.019  38.174  0.00  0.00    +0.045 C 
BRANCH  14  15
ATOM     15  CD  ARG A   4     -21.901  -3.502  36.760  0.00  0.00    +0.174 C 
BRANCH  15  16
ATOM     16  NE  ARG A   4     -20.825  -2.588  36.391  0.00  0.00    -0.265 N 
ATOM     17  HE  ARG A   4     -20.309  -2.118  37.162  0.00  0.00    +0.259 HD
ATOM     18  CZ  ARG A   4     -20.454  -2.310  35.152  0.00  0.00    +0.342 C 
ATOM     19  NH2 ARG A   4     -19.473  -1.458  34.955  0.00  0.00    -0.292 N 
ATOM     20 HH21 ARG A   4     -19.000  -1.013  35.767  0.00  0.00    +0.255 HD
ATOM     21 HH22 ARG A   4     -19.170  -1.229  33.987  0.00  0.00    +0.255 HD
ATOM     22  NH1 ARG A   4     -21.008  -2.902  34.113  0.00  0.00    -0.292 N 
ATOM     23 HH11 ARG A   4     -21.758  -3.608  34.256  0.00  0.00    +0.255 HD
ATOM     24 HH12 ARG A   4     -20.695  -2.663  33.150  0.00  0.00    +0.255 HD
ENDBRANCH  15  16
ENDBRANCH  14  15
ENDBRANCH  13  14
ENDBRANCH  10  13
ENDBRANCH   7  10
ENDBRANCH   5   6
BRANCH   5  25
ATOM     25  CB  THR A   3     -21.958  -7.128  43.045  0.00  0.00    +0.137 C 
ATOM     26  CG2 THR A   3     -20.661  -7.727  43.570  0.00  0.00    +0.034 C 
BRANCH  25  27
ATOM     27  OG1 THR A   3     -21.949  -5.696  43.172  0.00  0.00    -0.382 OA
ATOM     28  HG1 THR A   3     -21.770  -5.451  44.114  0.00  0.00    +0.210 HD
ENDBRANCH  25  27
ENDBRANCH   5  25
ENDBRANCH   2   5
BRANCH   1  29
ATOM     29  CA  LEU A   2     -23.402 -11.102  41.150  0.00  0.00    +0.149 C 
BRANCH  29  32
ATOM     30  C   TYR A   1     -23.929 -12.302  43.201  0.00  0.00    +0.239 C 
ATOM     31  O   TYR A   1     -22.773 -12.289  43.589  0.00  0.00    -0.274 OA
ATOM     32  N   LEU A   2     -24.314 -11.811  42.029  0.00  0.00    -0.297 N 
ATOM     33  H   LEU A   2     -25.302 -11.939  41.731  0.00  0.00    +0.150 HD
BRANCH  30  34
ATOM     34  CA  TYR A   1     -25.006 -12.958  44.039  0.00  0.00    +0.149 C 
BRANCH  34  35
ATOM     35  N   TYR A   1     -24.376 -13.865  45.015  0.00  0.00    -0.238 NA
ATOM     36  H   TYR A   1     -23.395 -13.685  45.309  0.00  0.00    +0.142 HD
ENDBRANCH  34  35
BRANCH  34  37
ATOM     37  CB  TYR A   1     -25.894 -11.895  44.735  0.00  0.00    +0.053 C 
BRANCH  37  38
ATOM     38  CG  TYR A   1     -25.095 -10.904  45.522  0.00  0.00    -0.020 A 
ATOM     39  CD2 TYR A   1     -24.576 -11.232  46.764  0.00  0.00    -0.001 A 
ATOM     40  CE2 TYR A   1     -23.779 -10.331  47.466  0.00  0.00    +0.036 A 
ATOM     41  CZ  TYR A   1     -23.484  -9.099  46.901  0.00  0.00    +0.134 A 
ATOM     42  CE1 TYR A   1     -23.983  -8.764  45.680  0.00  0.00    +0.036 A 
ATOM     43  CD1 TYR A   1     -24.780  -9.671  44.987  0.00  0.00    -0.001 A 
BRANCH  41  44
ATOM     44  OH  TYR A   1     -22.687  -8.188  47.557  0.00  0.00    -0.506 OA
ATOM     45  HH  TYR A   1     -22.400  -8.567  48.425  0.00  0.00    +0.292 HD
ENDBRANCH  41  44
ENDBRANCH  37  38
ENDBRANCH  34  37
ENDBRANCH  30  34
ENDBRANCH  29  32
BRANCH  29  46
ATOM     46  CB  LEU A   2     -23.661 -11.463  39.684  0.00  0.00    +0.029 C 
BRANCH  46  47
ATOM     47  CG  LEU A   2     -23.410 -12.935  39.369  0.00  0.00    +0.002 C 
ATOM     48  CD2 LEU A   2     -21.934 -13.151  39.127  0.00  0.00    +0.000 C 
ATOM     49  CD1 LEU A   2     -24.192 -13.370  38.184  0.00  0.00    +0.000 C 
ENDBRANCH  46  47
ENDBRANCH  29  46
ENDBRANCH   1  29
TORSDOF 19
REMARK  Name = ../refined-set-2016/3hky/3hky_pocket.pdb
REMARK  262 active torsions:
REMARK  status: ('A' for Active; 'I' for Inactive)
REMARK    1  A    between atoms: _1  and  _3
REMARK    2  A    between atoms: _3  and  _4
REMARK    3  A    between atoms: _3  and  _6
REMARK    4  A    between atoms: _6  and  _7
REMARK    5  A    between atoms: _7  and  _8
REMARK    6  A    between atoms: _8  and  _9
REMARK    7  A    between atoms: _9  and  _10
REMARK    8  A    between atoms: _14  and  _16
REMARK    9  A    between atoms: _16  and  _17
REMARK   10  A    between atoms: _16  and  _19
REMARK   11  A    between atoms: _19  and  _20
REMARK   12  A    between atoms: _20  and  _21
REMARK   13  A    between atoms: _24  and  _26
REMARK   14  A    between atoms: _26  and  _27
REMARK   15  A    between atoms: _26  and  _29
REMARK   16  A    between atoms: _29  and  _30
REMARK   17  A    between atoms: _30  and  _31
REMARK   18  A    between atoms: _31  and  _32
REMARK   19  A    between atoms: _41  and  _43
REMARK   20  A    between atoms: _43  and  _44
REMARK   21  A    between atoms: _46  and  _48
REMARK   22  A    between atoms: _48  and  _49
REMARK   23  A    between atoms: _48  and  _51
REMARK   24  A    between atoms: _51  and  _52
REMARK   25  A    between atoms: _58  and  _60
REMARK   26  A    between atoms: _60  and  _61
REMARK   27  A    between atoms: _60  and  _63
REMARK   28  A    between atoms: _63  and  _64
REMARK   29  A    between atoms: _69  and  _70
REMARK   30  A    between atoms: _72  and  _74
REMARK   31  A    between atoms: _74  and  _75
REMARK   32  A    between atoms: _74  and  _77
REMARK   33  A    between atoms: _77  and  _78
REMARK   34  A    between atoms: _81  and  _82
REMARK   35  A    between atoms: _87  and  _89
REMARK   36  A    between atoms: _89  and  _90
REMARK   37  A    between atoms: _89  and  _92
REMARK   38  A    between atoms: _92  and  _93
REMARK   39  A    between atoms: _93  and  _94
REMARK   40  A    between atoms: _94  and  _95
REMARK   41  A    between atoms: _95  and  _96
REMARK   42  A    between atoms: _100  and  _102
REMARK   43  A    between atoms: _102  and  _103
REMARK   44  A    between atoms: _102  and  _105
REMARK   45  A    between atoms: _105  and  _106
REMARK   46  A    between atoms: _106  and  _107
REMARK   47  A    between atoms: _112  and  _114
REMARK   48  A    between atoms: _114  and  _115
REMARK   49  A    between atoms: _114  and  _117
REMARK   50  A    between atoms: _117  and  _118
REMARK   51  A    between atoms: _118  and  _119
REMARK   52  A    between atoms: _119  and  _120
REMARK   53  A    between atoms: _129  and  _131
REMARK   54  A    between atoms: _131  and  _132
REMARK   55  A    between atoms: _131  and  _134
REMARK   56  A    between atoms: _137  and  _139
REMARK   57  A    between atoms: _139  and  _140
REMARK   58  A    between atoms: _139  and  _142
REMARK   59  A    between atoms: _142  and  _143
REMARK   60  A    between atoms: _146  and  _148
REMARK   61  A    between atoms: _148  and  _149
REMARK   62  A    between atoms: _148  and  _151
REMARK   63  A    between atoms: _151  and  _152
REMARK   64  A    between atoms: _155  and  _157
REMARK   65  A    between atoms: _157  and  _158
REMARK   66  A    between atoms: _157  and  _160
REMARK   67  A    between atoms: _160  and  _161
REMARK   68  A    between atoms: _163  and  _165
REMARK   69  A    between atoms: _165  and  _166
REMARK   70  A    between atoms: _165  and  _168
REMARK   71  A    between atoms: _168  and  _169
REMARK   72  A    between atoms: _172  and  _174
REMARK   73  A    between atoms: _174  and  _175
REMARK   74  A    between atoms: _174  and  _177
REMARK   75  A    between atoms: _177  and  _178
REMARK   76  A    between atoms: _180  and  _182
REMARK   77  A    between atoms: _182  and  _183
REMARK   78  A    between atoms: _182  and  _185
REMARK   79  A    between atoms: _185  and  _186
REMARK   80  A    between atoms: _191  and  _193
REMARK   81  A    between atoms: _193  and  _194
REMARK   82  A    between atoms: _193  and  _196
REMARK   83  A    between atoms: _196  and  _197
REMARK   84  A    between atoms: _200  and  _202
REMARK   85  A    between atoms: _202  and  _203
REMARK   86  A    between atoms: _202  and  _205
REMARK   87  A    between atoms: _205  and  _206
REMARK   88  A    between atoms: _211  and  _213
REMARK   89  A    between atoms: _213  and  _214
REMARK   90  A    between atoms: _216  and  _218
REMARK   91  A    between atoms: _218  and  _219
REMARK   92  A    between atoms: _218  and  _221
REMARK   93  A    between atoms: _221  and  _222
REMARK   94  A    between atoms: _225  and  _227
REMARK   95  A    between atoms: _227  and  _228
REMARK   96  A    between atoms: _227  and  _230
REMARK   97  A    between atoms: _230  and  _231
REMARK   98  A    between atoms: _234  and  _236
REMARK   99  A    between atoms: _236  and  _237
REMARK  100  A    between atoms: _236  and  _239
REMARK  101  A    between atoms: _239  and  _240
REMARK  102  A    between atoms: _242  and  _244
REMARK  103  A    between atoms: _244  and  _245
REMARK  104  A    between atoms: _244  and  _247
REMARK  105  A    between atoms: _249  and  _251
REMARK  106  A    between atoms: _251  and  _252
REMARK  107  A    between atoms: _251  and  _254
REMARK  108  A    between atoms: _254  and  _255
REMARK  109  A    between atoms: _257  and  _259
REMARK  110  A    between atoms: _259  and  _260
REMARK  111  A    between atoms: _259  and  _262
REMARK  112  A    between atoms: _262  and  _263
REMARK  113  A    between atoms: _265  and  _267
REMARK  114  A    between atoms: _267  and  _268
REMARK  115  A    between atoms: _267  and  _270
REMARK  116  A    between atoms: _270  and  _271
REMARK  117  A    between atoms: _276  and  _278
REMARK  118  A    between atoms: _278  and  _279
REMARK  119  A    between atoms: _278  and  _281
REMARK  120  A    between atoms: _281  and  _282
REMARK  121  A    between atoms: _287  and  _288
REMARK  122  A    between atoms: _290  and  _292
REMARK  123  A    between atoms: _292  and  _293
REMARK  124  A    between atoms: _292  and  _295
REMARK  125  A    between atoms: _295  and  _296
REMARK  126  A    between atoms: _299  and  _301
REMARK  127  A    between atoms: _301  and  _302
REMARK  128  A    between atoms: _301  and  _304
REMARK  129  A    between atoms: _304  and  _305
REMARK  130  A    between atoms: _308  and  _310
REMARK  131  A    between atoms: _310  and  _311
REMARK  132  A    between atoms: _310  and  _313
REMARK  133  A    between atoms: _313  and  _314
REMARK  134  A    between atoms: _314  and  _315
REMARK  135  A    between atoms: _315  and  _316
REMARK  136  A    between atoms: _326  and  _327
REMARK  137  A    between atoms: _332  and  _334
REMARK  138  A    between atoms: _334  and  _335
REMARK  139  A    between atoms: _334  and  _337
REMARK  140  A    between atoms: _337  and  _338
REMARK  141  A    between atoms: _338  and  _339
REMARK  142  A    between atoms: _339  and  _340
REMARK  143  A    between atoms: _349  and  _351
REMARK  144  A    between atoms: _351  and  _352
REMARK  145  A    between atoms: _351  and  _354
REMARK  146  A    between atoms: _354  and  _355
REMARK  147  A    between atoms: _355  and  _356
REMARK  148  A    between atoms: _359  and  _361
REMARK  149  A    between atoms: _361  and  _362
REMARK  150  A    between atoms: _361  and  _364
REMARK  151  A    between atoms: _364  and  _365
REMARK  152  A    between atoms: _368  and  _370
REMARK  153  A    between atoms: _370  and  _371
REMARK  154  A    between atoms: _370  and  _373
REMARK  155  A    between atoms: _373  and  _374
REMARK  156  A    between atoms: _379  and  _381
REMARK  157  A    between atoms: _381  and  _382
REMARK  158  A    between atoms: _381  and  _384
REMARK  159  A    between atoms: _384  and  _385
REMARK  160  A    between atoms: _387  and  _389
REMARK  161  A    between atoms: _389  and  _390
REMARK  162  A    between atoms: _389  and  _392
REMARK  163  A    between atoms: _392  and  _393
REMARK  164  A    between atoms: _403  and  _405
REMARK  165  A    between atoms: _405  and  _406
REMARK  166  A    between atoms: _405  and  _408
REMARK  167  A    between atoms: _408  and  _409
REMARK  168  A    between atoms: _412  and  _414
REMARK  169  A    between atoms: _414  and  _415
REMARK  170  A    between atoms: _417  and  _419
REMARK  171  A    between atoms: _419  and  _420
REMARK  172  A    between atoms: _419  and  _422
REMARK  173  A    between atoms: _422  and  _423
REMARK  174  A    between atoms: _428  and  _430
REMARK  175  A    between atoms: _430  and  _431
REMARK  176  A    between atoms: _430  and  _433
REMARK  177  A    between atoms: _433  and  _434
REMARK  178  A    between atoms: _437  and  _439
REMARK  179  A    between atoms: _439  and  _440
REMARK  180  A    between atoms: _439  and  _442
REMARK  181  A    between atoms: _442  and  _443
REMARK  182  A    between atoms: _446  and  _448
REMARK  183  A    between atoms: _448  and  _449
REMARK  184  A    between atoms: _448  and  _451
REMARK  185  A    between atoms: _451  and  _452
REMARK  186  A    between atoms: _452  and  _453
REMARK  187  A    between atoms: _455  and  _457
REMARK  188  A    between atoms: _457  and  _458
REMARK  189  A    between atoms: _457  and  _460
REMARK  190  A    between atoms: _460  and  _461
REMARK  191  A    between atoms: _466  and  _467
REMARK  192  A    between atoms: _469  and  _471
REMARK  193  A    between atoms: _471  and  _472
REMARK  194  A    between atoms: _476  and  _477
REMARK  195  A    between atoms: _482  and  _484
REMARK  196  A    between atoms: _484  and  _485
REMARK  197  A    between atoms: _484  and  _487
REMARK  198  A    between atoms: _487  and  _488
REMARK  199  A    between atoms: _491  and  _493
REMARK  200  A    between atoms: _493  and  _494
REMARK  201  A    between atoms: _493  and  _496
REMARK  202  A    between atoms: _496  and  _497
REMARK  203  A    between atoms: _507  and  _509
REMARK  204  A    between atoms: _509  and  _510
REMARK  205  A    between atoms: _509  and  _512
REMARK  206  A    between atoms: _514  and  _516
REMARK  207  A    between atoms: _516  and  _517
REMARK  208  A    between atoms: _516  and  _519
REMARK  209  A    between atoms: _519  and  _520
REMARK  210  A    between atoms: _520  and  _521
REMARK  211  A    between atoms: _526  and  _528
REMARK  212  A    between atoms: _528  and  _529
REMARK  213  A    between atoms: _528  and  _531
REMARK  214  A    between atoms: _531  and  _532
REMARK  215  A    between atoms: _535  and  _537
REMARK  216  A    between atoms: _537  and  _538
REMARK  217  A    between atoms: _537  and  _540
REMARK  218  A    between atoms: _540  and  _541
REMARK  219  A    between atoms: _546  and  _547
REMARK  220  A    between atoms: _549  and  _551
REMARK  221  A    between atoms: _551  and  _552
REMARK  222  A    between atoms: _554  and  _556
REMARK  223  A    between atoms: _556  and  _557
REMARK  224  A    between atoms: _560  and  _562
REMARK  225  A    between atoms: _562  and  _563
REMARK  226  A    between atoms: _562  and  _565
REMARK  227  A    between atoms: _567  and  _569
REMARK  228  A    between atoms: _569  and  _570
REMARK  229  A    between atoms: _569  and  _572
REMARK  230  A    between atoms: _572  and  _573
REMARK  231  A    between atoms: _578  and  _579
REMARK  232  A    between atoms: _581  and  _583
REMARK  233  A    between atoms: _583  and  _584
REMARK  234  A    between atoms: _583  and  _586
REMARK  235  A    between atoms: _586  and  _587
REMARK  236  A    between atoms: _590  and  _592
REMARK  237  A    between atoms: _592  and  _593
REMARK  238  A    between atoms: _592  and  _595
REMARK  239  A    between atoms: _595  and  _596
REMARK  240  A    between atoms: _601  and  _603
REMARK  241  A    between atoms: _603  and  _604
REMARK  242  A    between atoms: _603  and  _606
REMARK  243  A    between atoms: _606  and  _607
REMARK  244  A    between atoms: _617  and  _619
REMARK  245  A    between atoms: _619  and  _620
REMARK  246  A    between atoms: _619  and  _622
REMARK  247  A    between atoms: _622  and  _623
REMARK  248  A    between atoms: _629  and  _631
REMARK  249  A    between atoms: _631  and  _632
REMARK  250  A    between atoms: _635  and  _637
REMARK  251  A    between atoms: _637  and  _638
REMARK  252  A    between atoms: _640  and  _642
REMARK  253  A    between atoms: _642  and  _643
REMARK  254  A    between atoms: _642  and  _645
REMARK  255  A    between atoms: _645  and  _646
REMARK  256  A    between atoms: _651  and  _652
REMARK  257  A    between atoms: _654  and  _656
REMARK  258  A    between atoms: _656  and  _657
REMARK  259  A    between atoms: _656  and  _659
REMARK  260  A    between atoms: _659  and  _660
REMARK  261  A    between atoms: _662  and  _664
REMARK  262  A    between atoms: _664  and  _665
REMARK                            x       y       z     vdW  Elec       q    Type
REMARK                         _______ _______ _______ _____ _____    ______ ____
ROOT
ATOM      1  N   PRO A   1     -22.594   2.365  36.134  0.00  0.00    -0.212 NA
ATOM      2  CD  PRO A   1     -22.061   1.065  36.570  0.00  0.00    +0.089 C 
ATOM      3  CG  PRO A   1     -23.245   0.313  37.034  0.00  0.00    +0.021 C 
ATOM      4  CB  PRO A   1     -24.270   1.326  37.386  0.00  0.00    +0.027 C 
ATOM      5  CA  PRO A   1     -24.018   2.485  36.419  0.00  0.00    +0.137 C 
ENDROOT
BRANCH   5   6
ATOM      6  C   PRO A   1     -24.461   3.800  37.059  0.00  0.00    +0.224 C 
ATOM      7  O   PRO A   1     -25.540   4.319  36.713  0.00  0.00    -0.287 OA
ENDBRANCH   5   6
TORSDOF 1
REMARK  Name = ../refined-set-2016/3hky/3hky_pocket.pdb
REMARK  262 active torsions:
REMARK  status: ('A' for Active; 'I' for Inactive)
REMARK    1  A    between atoms: _1  and  _3
REMARK    2  A    between atoms: _3  and  _4
REMARK    3  A    between atoms: _3  and  _6
REMARK    4  A    between atoms: _6  and  _7
REMARK    5  A    between atoms: _7  and  _8
REMARK    6  A    between atoms: _8  and  _9
REMARK    7  A    between atoms: _9  and  _10
REMARK    8  A    between atoms: _14  and  _16
REMARK    9  A    between atoms: _16  and  _17
REMARK   10  A    between atoms: _16  and  _19
REMARK   11  A    between atoms: _19  and  _20
REMARK   12  A    between atoms: _20  and  _21
REMARK   13  A    between atoms: _24  and  _26
REMARK   14  A    between atoms: _26  and  _27
REMARK   15  A    between atoms: _26  and  _29
REMARK   16  A    between atoms: _29  and  _30
REMARK   17  A    between atoms: _30  and  _31
REMARK   18  A    between atoms: _31  and  _32
REMARK   19  A    between atoms: _41  and  _43
REMARK   20  A    between atoms: _43  and  _44
REMARK   21  A    between atoms: _46  and  _48
REMARK   22  A    between atoms: _48  and  _49
REMARK   23  A    between atoms: _48  and  _51
REMARK   24  A    between atoms: _51  and  _52
REMARK   25  A    between atoms: _58  and  _60
REMARK   26  A    between atoms: _60  and  _61
REMARK   27  A    between atoms: _60  and  _63
REMARK   28  A    between atoms: _63  and  _64
REMARK   29  A    between atoms: _69  and  _70
REMARK   30  A    between atoms: _72  and  _74
REMARK   31  A    between atoms: _74  and  _75
REMARK   32  A    between atoms: _74  and  _77
REMARK   33  A    between atoms: _77  and  _78
REMARK   34  A    between atoms: _81  and  _82
REMARK   35  A    between atoms: _87  and  _89
REMARK   36  A    between atoms: _89  and  _90
REMARK   37  A    between atoms: _89  and  _92
REMARK   38  A    between atoms: _92  and  _93
REMARK   39  A    between atoms: _93  and  _94
REMARK   40  A    between atoms: _94  and  _95
REMARK   41  A    between atoms: _95  and  _96
REMARK   42  A    between atoms: _100  and  _102
REMARK   43  A    between atoms: _102  and  _103
REMARK   44  A    between atoms: _102  and  _105
REMARK   45  A    between atoms: _105  and  _106
REMARK   46  A    between atoms: _106  and  _107
REMARK   47  A    between atoms: _112  and  _114
REMARK   48  A    between atoms: _114  and  _115
REMARK   49  A    between atoms: _114  and  _117
REMARK   50  A    between atoms: _117  and  _118
REMARK   51  A    between atoms: _118  and  _119
REMARK   52  A    between atoms: _119  and  _120
REMARK   53  A    between atoms: _129  and  _131
REMARK   54  A    between atoms: _131  and  _132
REMARK   55  A    between atoms: _131  and  _134
REMARK   56  A    between atoms: _137  and  _139
REMARK   57  A    between atoms: _139  and  _140
REMARK   58  A    between atoms: _139  and  _142
REMARK   59  A    between atoms: _142  and  _143
REMARK   60  A    between atoms: _146  and  _148
REMARK   61  A    between atoms: _148  and  _149
REMARK   62  A    between atoms: _148  and  _151
REMARK   63  A    between atoms: _151  and  _152
REMARK   64  A    between atoms: _155  and  _157
REMARK   65  A    between atoms: _157  and  _158
REMARK   66  A    between atoms: _157  and  _160
REMARK   67  A    between atoms: _160  and  _161
REMARK   68  A    between atoms: _163  and  _165
REMARK   69  A    between atoms: _165  and  _166
REMARK   70  A    between atoms: _165  and  _168
REMARK   71  A    between atoms: _168  and  _169
REMARK   72  A    between atoms: _172  and  _174
REMARK   73  A    between atoms: _174  and  _175
REMARK   74  A    between atoms: _174  and  _177
REMARK   75  A    between atoms: _177  and  _178
REMARK   76  A    between atoms: _180  and  _182
REMARK   77  A    between atoms: _182  and  _183
REMARK   78  A    between atoms: _182  and  _185
REMARK   79  A    between atoms: _185  and  _186
REMARK   80  A    between atoms: _191  and  _193
REMARK   81  A    between atoms: _193  and  _194
REMARK   82  A    between atoms: _193  and  _196
REMARK   83  A    between atoms: _196  and  _197
REMARK   84  A    between atoms: _200  and  _202
REMARK   85  A    between atoms: _202  and  _203
REMARK   86  A    between atoms: _202  and  _205
REMARK   87  A    between atoms: _205  and  _206
REMARK   88  A    between atoms: _211  and  _213
REMARK   89  A    between atoms: _213  and  _214
REMARK   90  A    between atoms: _216  and  _218
REMARK   91  A    between atoms: _218  and  _219
REMARK   92  A    between atoms: _218  and  _221
REMARK   93  A    between atoms: _221  and  _222
REMARK   94  A    between atoms: _225  and  _227
REMARK   95  A    between atoms: _227  and  _228
REMARK   96  A    between atoms: _227  and  _230
REMARK   97  A    between atoms: _230  and  _231
REMARK   98  A    between atoms: _234  and  _236
REMARK   99  A    between atoms: _236  and  _237
REMARK  100  A    between atoms: _236  and  _239
REMARK  101  A    between atoms: _239  and  _240
REMARK  102  A    between atoms: _242  and  _244
REMARK  103  A    between atoms: _244  and  _245
REMARK  104  A    between atoms: _244  and  _247
REMARK  105  A    between atoms: _249  and  _251
REMARK  106  A    between atoms: _251  and  _252
REMARK  107  A    between atoms: _251  and  _254
REMARK  108  A    between atoms: _254  and  _255
REMARK  109  A    between atoms: _257  and  _259
REMARK  110  A    between atoms: _259  and  _260
REMARK  111  A    between atoms: _259  and  _262
REMARK  112  A    between atoms: _262  and  _263
REMARK  113  A    between atoms: _265  and  _267
REMARK  114  A    between atoms: _267  and  _268
REMARK  115  A    between atoms: _267  and  _270
REMARK  116  A    between atoms: _270  and  _271
REMARK  117  A    between atoms: _276  and  _278
REMARK  118  A    between atoms: _278  and  _279
REMARK  119  A    between atoms: _278  and  _281
REMARK  120  A    between atoms: _281  and  _282
REMARK  121  A    between atoms: _287  and  _288
REMARK  122  A    between atoms: _290  and  _292
REMARK  123  A    between atoms: _292  and  _293
REMARK  124  A    between atoms: _292  and  _295
REMARK  125  A    between atoms: _295  and  _296
REMARK  126  A    between atoms: _299  and  _301
REMARK  127  A    between atoms: _301  and  _302
REMARK  128  A    between atoms: _301  and  _304
REMARK  129  A    between atoms: _304  and  _305
REMARK  130  A    between atoms: _308  and  _310
REMARK  131  A    between atoms: _310  and  _311
REMARK  132  A    between atoms: _310  and  _313
REMARK  133  A    between atoms: _313  and  _314
REMARK  134  A    between atoms: _314  and  _315
REMARK  135  A    between atoms: _315  and  _316
REMARK  136  A    between atoms: _326  and  _327
REMARK  137  A    between atoms: _332  and  _334
REMARK  138  A    between atoms: _334  and  _335
REMARK  139  A    between atoms: _334  and  _337
REMARK  140  A    between atoms: _337  and  _338
REMARK  141  A    between atoms: _338  and  _339
REMARK  142  A    between atoms: _339  and  _340
REMARK  143  A    between atoms: _349  and  _351
REMARK  144  A    between atoms: _351  and  _352
REMARK  145  A    between atoms: _351  and  _354
REMARK  146  A    between atoms: _354  and  _355
REMARK  147  A    between atoms: _355  and  _356
REMARK  148  A    between atoms: _359  and  _361
REMARK  149  A    between atoms: _361  and  _362
REMARK  150  A    between atoms: _361  and  _364
REMARK  151  A    between atoms: _364  and  _365
REMARK  152  A    between atoms: _368  and  _370
REMARK  153  A    between atoms: _370  and  _371
REMARK  154  A    between atoms: _370  and  _373
REMARK  155  A    between atoms: _373  and  _374
REMARK  156  A    between atoms: _379  and  _381
REMARK  157  A    between atoms: _381  and  _382
REMARK  158  A    between atoms: _381  and  _384
REMARK  159  A    between atoms: _384  and  _385
REMARK  160  A    between atoms: _387  and  _389
REMARK  161  A    between atoms: _389  and  _390
REMARK  162  A    between atoms: _389  and  _392
REMARK  163  A    between atoms: _392  and  _393
REMARK  164  A    between atoms: _403  and  _405
REMARK  165  A    between atoms: _405  and  _406
REMARK  166  A    between atoms: _405  and  _408
REMARK  167  A    between atoms: _408  and  _409
REMARK  168  A    between atoms: _412  and  _414
REMARK  169  A    between atoms: _414  and  _415
REMARK  170  A    between atoms: _417  and  _419
REMARK  171  A    between atoms: _419  and  _420
REMARK  172  A    between atoms: _419  and  _422
REMARK  173  A    between atoms: _422  and  _423
REMARK  174  A    between atoms: _428  and  _430
REMARK  175  A    between atoms: _430  and  _431
REMARK  176  A    between atoms: _430  and  _433
REMARK  177  A    between atoms: _433  and  _434
REMARK  178  A    between atoms: _437  and  _439
REMARK  179  A    between atoms: _439  and  _440
REMARK  180  A    between atoms: _439  and  _442
REMARK  181  A    between atoms: _442  and  _443
REMARK  182  A    between atoms: _446  and  _448
REMARK  183  A    between atoms: _448  and  _449
REMARK  184  A    between atoms: _448  and  _451
REMARK  185  A    between atoms: _451  and  _452
REMARK  186  A    between atoms: _452  and  _453
REMARK  187  A    between atoms: _455  and  _457
REMARK  188  A    between atoms: _457  and  _458
REMARK  189  A    between atoms: _457  and  _460
REMARK  190  A    between atoms: _460  and  _461
REMARK  191  A    between atoms: _466  and  _467
REMARK  192  A    between atoms: _469  and  _471
REMARK  193  A    between atoms: _471  and  _472
REMARK  194  A    between atoms: _476  and  _477
REMARK  195  A    between atoms: _482  and  _484
REMARK  196  A    between atoms: _484  and  _485
REMARK  197  A    between atoms: _484  and  _487
REMARK  198  A    between atoms: _487  and  _488
REMARK  199  A    between atoms: _491  and  _493
REMARK  200  A    between atoms: _493  and  _494
REMARK  201  A    between atoms: _493  and  _496
REMARK  202  A    between atoms: _496  and  _497
REMARK  203  A    between atoms: _507  and  _509
REMARK  204  A    between atoms: _509  and  _510
REMARK  205  A    between atoms: _509  and  _512
REMARK  206  A    between atoms: _514  and  _516
REMARK  207  A    between atoms: _516  and  _517
REMARK  208  A    between atoms: _516  and  _519
REMARK  209  A    between atoms: _519  and  _520
REMARK  210  A    between atoms: _520  and  _521
REMARK  211  A    between atoms: _526  and  _528
REMARK  212  A    between atoms: _528  and  _529
REMARK  213  A    between atoms: _528  and  _531
REMARK  214  A    between atoms: _531  and  _532
REMARK  215  A    between atoms: _535  and  _537
REMARK  216  A    between atoms: _537  and  _538
REMARK  217  A    between atoms: _537  and  _540
REMARK  218  A    between atoms: _540  and  _541
REMARK  219  A    between atoms: _546  and  _547
REMARK  220  A    between atoms: _549  and  _551
REMARK  221  A    between atoms: _551  and  _552
REMARK  222  A    between atoms: _554  and  _556
REMARK  223  A    between atoms: _556  and  _557
REMARK  224  A    between atoms: _560  and  _562
REMARK  225  A    between atoms: _562  and  _563
REMARK  226  A    between atoms: _562  and  _565
REMARK  227  A    between atoms: _567  and  _569
REMARK  228  A    between atoms: _569  and  _570
REMARK  229  A    between atoms: _569  and  _572
REMARK  230  A    between atoms: _572  and  _573
REMARK  231  A    between atoms: _578  and  _579
REMARK  232  A    between atoms: _581  and  _583
REMARK  233  A    between atoms: _583  and  _584
REMARK  234  A    between atoms: _583  and  _586
REMARK  235  A    between atoms: _586  and  _587
REMARK  236  A    between atoms: _590  and  _592
REMARK  237  A    between atoms: _592  and  _593
REMARK  238  A    between atoms: _592  and  _595
REMARK  239  A    between atoms: _595  and  _596
REMARK  240  A    between atoms: _601  and  _603
REMARK  241  A    between atoms: _603  and  _604
REMARK  242  A    between atoms: _603  and  _606
REMARK  243  A    between atoms: _606  and  _607
REMARK  244  A    between atoms: _617  and  _619
REMARK  245  A    between atoms: _619  and  _620
REMARK  246  A    between atoms: _619  and  _622
REMARK  247  A    between atoms: _622  and  _623
REMARK  248  A    between atoms: _629  and  _631
REMARK  249  A    between atoms: _631  and  _632
REMARK  250  A    between atoms: _635  and  _637
REMARK  251  A    between atoms: _637  and  _638
REMARK  252  A    between atoms: _640  and  _642
REMARK  253  A    between atoms: _642  and  _643
REMARK  254  A    between atoms: _642  and  _645
REMARK  255  A    between atoms: _645  and  _646
REMARK  256  A    between atoms: _651  and  _652
REMARK  257  A    between atoms: _654  and  _656
REMARK  258  A    between atoms: _656  and  _657
REMARK  259  A    between atoms: _656  and  _659
REMARK  260  A    between atoms: _659  and  _660
REMARK  261  A    between atoms: _662  and  _664
REMARK  262  A    between atoms: _664  and  _665
REMARK                            x       y       z     vdW  Elec       q    Type
REMARK                         _______ _______ _______ _____ _____    ______ ____
ROOT
ATOM      1  NE  ARG A   1     -22.746   3.828  30.590  0.00  0.00    -0.265 N 
ATOM      2  HE  ARG A   1     -22.181   4.699  30.645  0.00  0.00    +0.259 HD
ATOM      3  CZ  ARG A   1     -22.235   2.814  29.916  0.00  0.00    +0.342 C 
ATOM      4  NH2 ARG A   1     -22.919   1.692  29.786  0.00  0.00    -0.292 N 
ATOM      5 HH21 ARG A   1     -23.862   1.605  30.215  0.00  0.00    +0.255 HD
ATOM      6 HH22 ARG A   1     -22.514   0.895  29.255  0.00  0.00    +0.255 HD
ATOM      7  NH1 ARG A   1     -21.024   2.935  29.371  0.00  0.00    -0.292 N 
ATOM      8 HH11 ARG A   1     -20.491   3.822  29.479  0.00  0.00    +0.255 HD
ATOM      9 HH12 ARG A   1     -20.612   2.143  28.838  0.00  0.00    +0.255 HD
ENDROOT
BRANCH   1  10
ATOM     10  CD  ARG A   1     -24.048   3.823  31.268  0.00  0.00    +0.174 C 
BRANCH  10  11
ATOM     11  CG  ARG A   1     -24.117   5.104  32.034  0.00  0.00    +0.045 C 
BRANCH  11  12
ATOM     12  CB  ARG A   1     -25.299   5.267  32.927  0.00  0.00    +0.029 C 
BRANCH  12  13
ATOM     13  CA  ARG A   1     -25.248   6.649  33.582  0.00  0.00    +0.133 C 
BRANCH  13  14
ATOM     14  N   ARG A   1     -24.166   6.739  34.551  0.00  0.00    -0.239 NA
ATOM     15  H   ARG A   1     -23.680   5.874  34.862  0.00  0.00    +0.142 HD
ENDBRANCH  13  14
BRANCH  13  16
ATOM     16  C   ARG A   1     -26.570   7.017  34.193  0.00  0.00    +0.224 C 
ATOM     17  O   ARG A   1     -27.397   7.634  33.519  0.00  0.00    -0.287 OA
ENDBRANCH  13  16
ENDBRANCH  12  13
ENDBRANCH  11  12
ENDBRANCH  10  11
ENDBRANCH   1  10
TORSDOF 6
REMARK  Name = ../refined-set-2016/3hky/3hky_pocket.pdb
REMARK  262 active torsions:
REMARK  status: ('A' for Active; 'I' for Inactive)
REMARK    1  A    between atoms: _1  and  _3
REMARK    2  A    between atoms: _3  and  _4
REMARK    3  A    between atoms: _3  and  _6
REMARK    4  A    between atoms: _6  and  _7
REMARK    5  A    between atoms: _7  and  _8
REMARK    6  A    between atoms: _8  and  _9
REMARK    7  A    between atoms: _9  and  _10
REMARK    8  A    between atoms: _14  and  _16
REMARK    9  A    between atoms: _16  and  _17
REMARK   10  A    between atoms: _16  and  _19
REMARK   11  A    between atoms: _19  and  _20
REMARK   12  A    between atoms: _20  and  _21
REMARK   13  A    between atoms: _24  and  _26
REMARK   14  A    between atoms: _26  and  _27
REMARK   15  A    between atoms: _26  and  _29
REMARK   16  A    between atoms: _29  and  _30
REMARK   17  A    between atoms: _30  and  _31
REMARK   18  A    between atoms: _31  and  _32
REMARK   19  A    between atoms: _41  and  _43
REMARK   20  A    between atoms: _43  and  _44
REMARK   21  A    between atoms: _46  and  _48
REMARK   22  A    between atoms: _48  and  _49
REMARK   23  A    between atoms: _48  and  _51
REMARK   24  A    between atoms: _51  and  _52
REMARK   25  A    between atoms: _58  and  _60
REMARK   26  A    between atoms: _60  and  _61
REMARK   27  A    between atoms: _60  and  _63
REMARK   28  A    between atoms: _63  and  _64
REMARK   29  A    between atoms: _69  and  _70
REMARK   30  A    between atoms: _72  and  _74
REMARK   31  A    between atoms: _74  and  _75
REMARK   32  A    between atoms: _74  and  _77
REMARK   33  A    between atoms: _77  and  _78
REMARK   34  A    between atoms: _81  and  _82
REMARK   35  A    between atoms: _87  and  _89
REMARK   36  A    between atoms: _89  and  _90
REMARK   37  A    between atoms: _89  and  _92
REMARK   38  A    between atoms: _92  and  _93
REMARK   39  A    between atoms: _93  and  _94
REMARK   40  A    between atoms: _94  and  _95
REMARK   41  A    between atoms: _95  and  _96
REMARK   42  A    between atoms: _100  and  _102
REMARK   43  A    between atoms: _102  and  _103
REMARK   44  A    between atoms: _102  and  _105
REMARK   45  A    between atoms: _105  and  _106
REMARK   46  A    between atoms: _106  and  _107
REMARK   47  A    between atoms: _112  and  _114
REMARK   48  A    between atoms: _114  and  _115
REMARK   49  A    between atoms: _114  and  _117
REMARK   50  A    between atoms: _117  and  _118
REMARK   51  A    between atoms: _118  and  _119
REMARK   52  A    between atoms: _119  and  _120
REMARK   53  A    between atoms: _129  and  _131
REMARK   54  A    between atoms: _131  and  _132
REMARK   55  A    between atoms: _131  and  _134
REMARK   56  A    between atoms: _137  and  _139
REMARK   57  A    between atoms: _139  and  _140
REMARK   58  A    between atoms: _139  and  _142
REMARK   59  A    between atoms: _142  and  _143
REMARK   60  A    between atoms: _146  and  _148
REMARK   61  A    between atoms: _148  and  _149
REMARK   62  A    between atoms: _148  and  _151
REMARK   63  A    between atoms: _151  and  _152
REMARK   64  A    between atoms: _155  and  _157
REMARK   65  A    between atoms: _157  and  _158
REMARK   66  A    between atoms: _157  and  _160
REMARK   67  A    between atoms: _160  and  _161
REMARK   68  A    between atoms: _163  and  _165
REMARK   69  A    between atoms: _165  and  _166
REMARK   70  A    between atoms: _165  and  _168
REMARK   71  A    between atoms: _168  and  _169
REMARK   72  A    between atoms: _172  and  _174
REMARK   73  A    between atoms: _174  and  _175
REMARK   74  A    between atoms: _174  and  _177
REMARK   75  A    between atoms: _177  and  _178
REMARK   76  A    between atoms: _180  and  _182
REMARK   77  A    between atoms: _182  and  _183
REMARK   78  A    between atoms: _182  and  _185
REMARK   79  A    between atoms: _185  and  _186
REMARK   80  A    between atoms: _191  and  _193
REMARK   81  A    between atoms: _193  and  _194
REMARK   82  A    between atoms: _193  and  _196
REMARK   83  A    between atoms: _196  and  _197
REMARK   84  A    between atoms: _200  and  _202
REMARK   85  A    between atoms: _202  and  _203
REMARK   86  A    between atoms: _202  and  _205
REMARK   87  A    between atoms: _205  and  _206
REMARK   88  A    between atoms: _211  and  _213
REMARK   89  A    between atoms: _213  and  _214
REMARK   90  A    between atoms: _216  and  _218
REMARK   91  A    between atoms: _218  and  _219
REMARK   92  A    between atoms: _218  and  _221
REMARK   93  A    between atoms: _221  and  _222
REMARK   94  A    between atoms: _225  and  _227
REMARK   95  A    between atoms: _227  and  _228
REMARK   96  A    between atoms: _227  and  _230
REMARK   97  A    between atoms: _230  and  _231
REMARK   98  A    between atoms: _234  and  _236
REMARK   99  A    between atoms: _236  and  _237
REMARK  100  A    between atoms: _236  and  _239
REMARK  101  A    between atoms: _239  and  _240
REMARK  102  A    between atoms: _242  and  _244
REMARK  103  A    between atoms: _244  and  _245
REMARK  104  A    between atoms: _244  and  _247
REMARK  105  A    between atoms: _249  and  _251
REMARK  106  A    between atoms: _251  and  _252
REMARK  107  A    between atoms: _251  and  _254
REMARK  108  A    between atoms: _254  and  _255
REMARK  109  A    between atoms: _257  and  _259
REMARK  110  A    between atoms: _259  and  _260
REMARK  111  A    between atoms: _259  and  _262
REMARK  112  A    between atoms: _262  and  _263
REMARK  113  A    between atoms: _265  and  _267
REMARK  114  A    between atoms: _267  and  _268
REMARK  115  A    between atoms: _267  and  _270
REMARK  116  A    between atoms: _270  and  _271
REMARK  117  A    between atoms: _276  and  _278
REMARK  118  A    between atoms: _278  and  _279
REMARK  119  A    between atoms: _278  and  _281
REMARK  120  A    between atoms: _281  and  _282
REMARK  121  A    between atoms: _287  and  _288
REMARK  122  A    between atoms: _290  and  _292
REMARK  123  A    between atoms: _292  and  _293
REMARK  124  A    between atoms: _292  and  _295
REMARK  125  A    between atoms: _295  and  _296
REMARK  126  A    between atoms: _299  and  _301
REMARK  127  A    between atoms: _301  and  _302
REMARK  128  A    between atoms: _301  and  _304
REMARK  129  A    between atoms: _304  and  _305
REMARK  130  A    between atoms: _308  and  _310
REMARK  131  A    between atoms: _310  and  _311
REMARK  132  A    between atoms: _310  and  _313
REMARK  133  A    between atoms: _313  and  _314
REMARK  134  A    between atoms: _314  and  _315
REMARK  135  A    between atoms: _315  and  _316
REMARK  136  A    between atoms: _326  and  _327
REMARK  137  A    between atoms: _332  and  _334
REMARK  138  A    between atoms: _334  and  _335
REMARK  139  A    between atoms: _334  and  _337
REMARK  140  A    between atoms: _337  and  _338
REMARK  141  A    between atoms: _338  and  _339
REMARK  142  A    between atoms: _339  and  _340
REMARK  143  A    between atoms: _349  and  _351
REMARK  144  A    between atoms: _351  and  _352
REMARK  145  A    between atoms: _351  and  _354
REMARK  146  A    between atoms: _354  and  _355
REMARK  147  A    between atoms: _355  and  _356
REMARK  148  A    between atoms: _359  and  _361
REMARK  149  A    between atoms: _361  and  _362
REMARK  150  A    between atoms: _361  and  _364
REMARK  151  A    between atoms: _364  and  _365
REMARK  152  A    between atoms: _368  and  _370
REMARK  153  A    between atoms: _370  and  _371
REMARK  154  A    between atoms: _370  and  _373
REMARK  155  A    between atoms: _373  and  _374
REMARK  156  A    between atoms: _379  and  _381
REMARK  157  A    between atoms: _381  and  _382
REMARK  158  A    between atoms: _381  and  _384
REMARK  159  A    between atoms: _384  and  _385
REMARK  160  A    between atoms: _387  and  _389
REMARK  161  A    between atoms: _389  and  _390
REMARK  162  A    between atoms: _389  and  _392
REMARK  163  A    between atoms: _392  and  _393
REMARK  164  A    between atoms: _403  and  _405
REMARK  165  A    between atoms: _405  and  _406
REMARK  166  A    between atoms: _405  and  _408
REMARK  167  A    between atoms: _408  and  _409
REMARK  168  A    between atoms: _412  and  _414
REMARK  169  A    between atoms: _414  and  _415
REMARK  170  A    between atoms: _417  and  _419
REMARK  171  A    between atoms: _419  and  _420
REMARK  172  A    between atoms: _419  and  _422
REMARK  173  A    between atoms: _422  and  _423
REMARK  174  A    between atoms: _428  and  _430
REMARK  175  A    between atoms: _430  and  _431
REMARK  176  A    between atoms: _430  and  _433
REMARK  177  A    between atoms: _433  and  _434
REMARK  178  A    between atoms: _437  and  _439
REMARK  179  A    between atoms: _439  and  _440
REMARK  180  A    between atoms: _439  and  _442
REMARK  181  A    between atoms: _442  and  _443
REMARK  182  A    between atoms: _446  and  _448
REMARK  183  A    between atoms: _448  and  _449
REMARK  184  A    between atoms: _448  and  _451
REMARK  185  A    between atoms: _451  and  _452
REMARK  186  A    between atoms: _452  and  _453
REMARK  187  A    between atoms: _455  and  _457
REMARK  188  A    between atoms: _457  and  _458
REMARK  189  A    between atoms: _457  and  _460
REMARK  190  A    between atoms: _460  and  _461
REMARK  191  A    between atoms: _466  and  _467
REMARK  192  A    between atoms: _469  and  _471
REMARK  193  A    between atoms: _471  and  _472
REMARK  194  A    between atoms: _476  and  _477
REMARK  195  A    between atoms: _482  and  _484
REMARK  196  A    between atoms: _484  and  _485
REMARK  197  A    between atoms: _484  and  _487
REMARK  198  A    between atoms: _487  and  _488
REMARK  199  A    between atoms: _491  and  _493
REMARK  200  A    between atoms: _493  and  _494
REMARK  201  A    between atoms: _493  and  _496
REMARK  202  A    between atoms: _496  and  _497
REMARK  203  A    between atoms: _507  and  _509
REMARK  204  A    between atoms: _509  and  _510
REMARK  205  A    between atoms: _509  and  _512
REMARK  206  A    between atoms: _514  and  _516
REMARK  207  A    between atoms: _516  and  _517
REMARK  208  A    between atoms: _516  and  _519
REMARK  209  A    between atoms: _519  and  _520
REMARK  210  A    between atoms: _520  and  _521
REMARK  211  A    between atoms: _526  and  _528
REMARK  212  A    between atoms: _528  and  _529
REMARK  213  A    between atoms: _528  and  _531
REMARK  214  A    between atoms: _531  and  _532
REMARK  215  A    between atoms: _535  and  _537
REMARK  216  A    between atoms: _537  and  _538
REMARK  217  A    between atoms: _537  and  _540
REMARK  218  A    between atoms: _540  and  _541
REMARK  219  A    between atoms: _546  and  _547
REMARK  220  A    between atoms: _549  and  _551
REMARK  221  A    between atoms: _551  and  _552
REMARK  222  A    between atoms: _554  and  _556
REMARK  223  A    between atoms: _556  and  _557
REMARK  224  A    between atoms: _560  and  _562
REMARK  225  A    between atoms: _562  and  _563
REMARK  226  A    between atoms: _562  and  _565
REMARK  227  A    between atoms: _567  and  _569
REMARK  228  A    between atoms: _569  and  _570
REMARK  229  A    between atoms: _569  and  _572
REMARK  230  A    between atoms: _572  and  _573
REMARK  231  A    between atoms: _578  and  _579
REMARK  232  A    between atoms: _581  and  _583
REMARK  233  A    between atoms: _583  and  _584
REMARK  234  A    between atoms: _583  and  _586
REMARK  235  A    between atoms: _586  and  _587
REMARK  236  A    between atoms: _590  and  _592
REMARK  237  A    between atoms: _592  and  _593
REMARK  238  A    between atoms: _592  and  _595
REMARK  239  A    between atoms: _595  and  _596
REMARK  240  A    between atoms: _601  and  _603
REMARK  241  A    between atoms: _603  and  _604
REMARK  242  A    between atoms: _603  and  _606
REMARK  243  A    between atoms: _606  and  _607
REMARK  244  A    between atoms: _617  and  _619
REMARK  245  A    between atoms: _619  and  _620
REMARK  246  A    between atoms: _619  and  _622
REMARK  247  A    between atoms: _622  and  _623
REMARK  248  A    between atoms: _629  and  _631
REMARK  249  A    between atoms: _631  and  _632
REMARK  250  A    between atoms: _635  and  _637
REMARK  251  A    between atoms: _637  and  _638
REMARK  252  A    between atoms: _640  and  _642
REMARK  253  A    between atoms: _642  and  _643
REMARK  254  A    between atoms: _642  and  _645
REMARK  255  A    between atoms: _645  and  _646
REMARK  256  A    between atoms: _651  and  _652
REMARK  257  A    between atoms: _654  and  _656
REMARK  258  A    between atoms: _656  and  _657
REMARK  259  A    between atoms: _656  and  _659
REMARK  260  A    between atoms: _659  and  _660
REMARK  261  A    between atoms: _662  and  _664
REMARK  262  A    between atoms: _664  and  _665
REMARK                            x       y       z     vdW  Elec       q    Type
REMARK                         _______ _______ _______ _____ _____    ______ ____
ROOT
ATOM      1  CA  GLU A   1     -30.454   9.525  32.545  0.00  0.00    +0.134 C 
ENDROOT
BRANCH   1   2
ATOM      2  N   GLU A   1     -29.044   9.874  32.818  0.00  0.00    -0.239 NA
ATOM      3  H   GLU A   1     -28.411   9.139  33.192  0.00  0.00    +0.142 HD
ENDBRANCH   1   2
BRANCH   1   4
ATOM      4  C   GLU A   1     -31.470  10.272  33.408  0.00  0.00    +0.224 C 
ATOM      5  O   GLU A   1     -32.638  10.422  33.012  0.00  0.00    -0.287 OA
ENDBRANCH   1   4
BRANCH   1   6
ATOM      6  CB  GLU A   1     -30.612   8.000  32.647  0.00  0.00    +0.037 C 
BRANCH   6   7
ATOM      7  CG  GLU A   1     -29.820   7.250  31.523  0.00  0.00    +0.116 C 
BRANCH   7   8
ATOM      8  CD  GLU A   1     -29.587   5.749  31.768  0.00  0.00    +0.365 C 
ATOM      9  OE2 GLU A   1     -30.043   5.213  32.809  0.00  0.00    -0.246 OA
ATOM     10  OE1 GLU A   1     -28.920   5.103  30.913  0.00  0.00    -0.246 OA
ENDBRANCH   7   8
ENDBRANCH   6   7
ENDBRANCH   1   6
TORSDOF 5
REMARK  Name = ../refined-set-2016/3hky/3hky_pocket.pdb
REMARK  262 active torsions:
REMARK  status: ('A' for Active; 'I' for Inactive)
REMARK    1  A    between atoms: _1  and  _3
REMARK    2  A    between atoms: _3  and  _4
REMARK    3  A    between atoms: _3  and  _6
REMARK    4  A    between atoms: _6  and  _7
REMARK    5  A    between atoms: _7  and  _8
REMARK    6  A    between atoms: _8  and  _9
REMARK    7  A    between atoms: _9  and  _10
REMARK    8  A    between atoms: _14  and  _16
REMARK    9  A    between atoms: _16  and  _17
REMARK   10  A    between atoms: _16  and  _19
REMARK   11  A    between atoms: _19  and  _20
REMARK   12  A    between atoms: _20  and  _21
REMARK   13  A    between atoms: _24  and  _26
REMARK   14  A    between atoms: _26  and  _27
REMARK   15  A    between atoms: _26  and  _29
REMARK   16  A    between atoms: _29  and  _30
REMARK   17  A    between atoms: _30  and  _31
REMARK   18  A    between atoms: _31  and  _32
REMARK   19  A    between atoms: _41  and  _43
REMARK   20  A    between atoms: _43  and  _44
REMARK   21  A    between atoms: _46  and  _48
REMARK   22  A    between atoms: _48  and  _49
REMARK   23  A    between atoms: _48  and  _51
REMARK   24  A    between atoms: _51  and  _52
REMARK   25  A    between atoms: _58  and  _60
REMARK   26  A    between atoms: _60  and  _61
REMARK   27  A    between atoms: _60  and  _63
REMARK   28  A    between atoms: _63  and  _64
REMARK   29  A    between atoms: _69  and  _70
REMARK   30  A    between atoms: _72  and  _74
REMARK   31  A    between atoms: _74  and  _75
REMARK   32  A    between atoms: _74  and  _77
REMARK   33  A    between atoms: _77  and  _78
REMARK   34  A    between atoms: _81  and  _82
REMARK   35  A    between atoms: _87  and  _89
REMARK   36  A    between atoms: _89  and  _90
REMARK   37  A    between atoms: _89  and  _92
REMARK   38  A    between atoms: _92  and  _93
REMARK   39  A    between atoms: _93  and  _94
REMARK   40  A    between atoms: _94  and  _95
REMARK   41  A    between atoms: _95  and  _96
REMARK   42  A    between atoms: _100  and  _102
REMARK   43  A    between atoms: _102  and  _103
REMARK   44  A    between atoms: _102  and  _105
REMARK   45  A    between atoms: _105  and  _106
REMARK   46  A    between atoms: _106  and  _107
REMARK   47  A    between atoms: _112  and  _114
REMARK   48  A    between atoms: _114  and  _115
REMARK   49  A    between atoms: _114  and  _117
REMARK   50  A    between atoms: _117  and  _118
REMARK   51  A    between atoms: _118  and  _119
REMARK   52  A    between atoms: _119  and  _120
REMARK   53  A    between atoms: _129  and  _131
REMARK   54  A    between atoms: _131  and  _132
REMARK   55  A    between atoms: _131  and  _134
REMARK   56  A    between atoms: _137  and  _139
REMARK   57  A    between atoms: _139  and  _140
REMARK   58  A    between atoms: _139  and  _142
REMARK   59  A    between atoms: _142  and  _143
REMARK   60  A    between atoms: _146  and  _148
REMARK   61  A    between atoms: _148  and  _149
REMARK   62  A    between atoms: _148  and  _151
REMARK   63  A    between atoms: _151  and  _152
REMARK   64  A    between atoms: _155  and  _157
REMARK   65  A    between atoms: _157  and  _158
REMARK   66  A    between atoms: _157  and  _160
REMARK   67  A    between atoms: _160  and  _161
REMARK   68  A    between atoms: _163  and  _165
REMARK   69  A    between atoms: _165  and  _166
REMARK   70  A    between atoms: _165  and  _168
REMARK   71  A    between atoms: _168  and  _169
REMARK   72  A    between atoms: _172  and  _174
REMARK   73  A    between atoms: _174  and  _175
REMARK   74  A    between atoms: _174  and  _177
REMARK   75  A    between atoms: _177  and  _178
REMARK   76  A    between atoms: _180  and  _182
REMARK   77  A    between atoms: _182  and  _183
REMARK   78  A    between atoms: _182  and  _185
REMARK   79  A    between atoms: _185  and  _186
REMARK   80  A    between atoms: _191  and  _193
REMARK   81  A    between atoms: _193  and  _194
REMARK   82  A    between atoms: _193  and  _196
REMARK   83  A    between atoms: _196  and  _197
REMARK   84  A    between atoms: _200  and  _202
REMARK   85  A    between atoms: _202  and  _203
REMARK   86  A    between atoms: _202  and  _205
REMARK   87  A    between atoms: _205  and  _206
REMARK   88  A    between atoms: _211  and  _213
REMARK   89  A    between atoms: _213  and  _214
REMARK   90  A    between atoms: _216  and  _218
REMARK   91  A    between atoms: _218  and  _219
REMARK   92  A    between atoms: _218  and  _221
REMARK   93  A    between atoms: _221  and  _222
REMARK   94  A    between atoms: _225  and  _227
REMARK   95  A    between atoms: _227  and  _228
REMARK   96  A    between atoms: _227  and  _230
REMARK   97  A    between atoms: _230  and  _231
REMARK   98  A    between atoms: _234  and  _236
REMARK   99  A    between atoms: _236  and  _237
REMARK  100  A    between atoms: _236  and  _239
REMARK  101  A    between atoms: _239  and  _240
REMARK  102  A    between atoms: _242  and  _244
REMARK  103  A    between atoms: _244  and  _245
REMARK  104  A    between atoms: _244  and  _247
REMARK  105  A    between atoms: _249  and  _251
REMARK  106  A    between atoms: _251  and  _252
REMARK  107  A    between atoms: _251  and  _254
REMARK  108  A    between atoms: _254  and  _255
REMARK  109  A    between atoms: _257  and  _259
REMARK  110  A    between atoms: _259  and  _260
REMARK  111  A    between atoms: _259  and  _262
REMARK  112  A    between atoms: _262  and  _263
REMARK  113  A    between atoms: _265  and  _267
REMARK  114  A    between atoms: _267  and  _268
REMARK  115  A    between atoms: _267  and  _270
REMARK  116  A    between atoms: _270  and  _271
REMARK  117  A    between atoms: _276  and  _278
REMARK  118  A    between atoms: _278  and  _279
REMARK  119  A    between atoms: _278  and  _281
REMARK  120  A    between atoms: _281  and  _282
REMARK  121  A    between atoms: _287  and  _288
REMARK  122  A    between atoms: _290  and  _292
REMARK  123  A    between atoms: _292  and  _293
REMARK  124  A    between atoms: _292  and  _295
REMARK  125  A    between atoms: _295  and  _296
REMARK  126  A    between atoms: _299  and  _301
REMARK  127  A    between atoms: _301  and  _302
REMARK  128  A    between atoms: _301  and  _304
REMARK  129  A    between atoms: _304  and  _305
REMARK  130  A    between atoms: _308  and  _310
REMARK  131  A    between atoms: _310  and  _311
REMARK  132  A    between atoms: _310  and  _313
REMARK  133  A    between atoms: _313  and  _314
REMARK  134  A    between atoms: _314  and  _315
REMARK  135  A    between atoms: _315  and  _316
REMARK  136  A    between atoms: _326  and  _327
REMARK  137  A    between atoms: _332  and  _334
REMARK  138  A    between atoms: _334  and  _335
REMARK  139  A    between atoms: _334  and  _337
REMARK  140  A    between atoms: _337  and  _338
REMARK  141  A    between atoms: _338  and  _339
REMARK  142  A    between atoms: _339  and  _340
REMARK  143  A    between atoms: _349  and  _351
REMARK  144  A    between atoms: _351  and  _352
REMARK  145  A    between atoms: _351  and  _354
REMARK  146  A    between atoms: _354  and  _355
REMARK  147  A    between atoms: _355  and  _356
REMARK  148  A    between atoms: _359  and  _361
REMARK  149  A    between atoms: _361  and  _362
REMARK  150  A    between atoms: _361  and  _364
REMARK  151  A    between atoms: _364  and  _365
REMARK  152  A    between atoms: _368  and  _370
REMARK  153  A    between atoms: _370  and  _371
REMARK  154  A    between atoms: _370  and  _373
REMARK  155  A    between atoms: _373  and  _374
REMARK  156  A    between atoms: _379  and  _381
REMARK  157  A    between atoms: _381  and  _382
REMARK  158  A    between atoms: _381  and  _384
REMARK  159  A    between atoms: _384  and  _385
REMARK  160  A    between atoms: _387  and  _389
REMARK  161  A    between atoms: _389  and  _390
REMARK  162  A    between atoms: _389  and  _392
REMARK  163  A    between atoms: _392  and  _393
REMARK  164  A    between atoms: _403  and  _405
REMARK  165  A    between atoms: _405  and  _406
REMARK  166  A    between atoms: _405  and  _408
REMARK  167  A    between atoms: _408  and  _409
REMARK  168  A    between atoms: _412  and  _414
REMARK  169  A    between atoms: _414  and  _415
REMARK  170  A    between atoms: _417  and  _419
REMARK  171  A    between atoms: _419  and  _420
REMARK  172  A    between atoms: _419  and  _422
REMARK  173  A    between atoms: _422  and  _423
REMARK  174  A    between atoms: _428  and  _430
REMARK  175  A    between atoms: _430  and  _431
REMARK  176  A    between atoms: _430  and  _433
REMARK  177  A    between atoms: _433  and  _434
REMARK  178  A    between atoms: _437  and  _439
REMARK  179  A    between atoms: _439  and  _440
REMARK  180  A    between atoms: _439  and  _442
REMARK  181  A    between atoms: _442  and  _443
REMARK  182  A    between atoms: _446  and  _448
REMARK  183  A    between atoms: _448  and  _449
REMARK  184  A    between atoms: _448  and  _451
REMARK  185  A    between atoms: _451  and  _452
REMARK  186  A    between atoms: _452  and  _453
REMARK  187  A    between atoms: _455  and  _457
REMARK  188  A    between atoms: _457  and  _458
REMARK  189  A    between atoms: _457  and  _460
REMARK  190  A    between atoms: _460  and  _461
REMARK  191  A    between atoms: _466  and  _467
REMARK  192  A    between atoms: _469  and  _471
REMARK  193  A    between atoms: _471  and  _472
REMARK  194  A    between atoms: _476  and  _477
REMARK  195  A    between atoms: _482  and  _484
REMARK  196  A    between atoms: _484  and  _485
REMARK  197  A    between atoms: _484  and  _487
REMARK  198  A    between atoms: _487  and  _488
REMARK  199  A    between atoms: _491  and  _493
REMARK  200  A    between atoms: _493  and  _494
REMARK  201  A    between atoms: _493  and  _496
REMARK  202  A    between atoms: _496  and  _497
REMARK  203  A    between atoms: _507  and  _509
REMARK  204  A    between atoms: _509  and  _510
REMARK  205  A    between atoms: _509  and  _512
REMARK  206  A    between atoms: _514  and  _516
REMARK  207  A    between atoms: _516  and  _517
REMARK  208  A    between atoms: _516  and  _519
REMARK  209  A    between atoms: _519  and  _520
REMARK  210  A    between atoms: _520  and  _521
REMARK  211  A    between atoms: _526  and  _528
REMARK  212  A    between atoms: _528  and  _529
REMARK  213  A    between atoms: _528  and  _531
REMARK  214  A    between atoms: _531  and  _532
REMARK  215  A    between atoms: _535  and  _537
REMARK  216  A    between atoms: _537  and  _538
REMARK  217  A    between atoms: _537  and  _540
REMARK  218  A    between atoms: _540  and  _541
REMARK  219  A    between atoms: _546  and  _547
REMARK  220  A    between atoms: _549  and  _551
REMARK  221  A    between atoms: _551  and  _552
REMARK  222  A    between atoms: _554  and  _556
REMARK  223  A    between atoms: _556  and  _557
REMARK  224  A    between atoms: _560  and  _562
REMARK  225  A    between atoms: _562  and  _563
REMARK  226  A    between atoms: _562  and  _565
REMARK  227  A    between atoms: _567  and  _569
REMARK  228  A    between atoms: _569  and  _570
REMARK  229  A    between atoms: _569  and  _572
REMARK  230  A    between atoms: _572  and  _573
REMARK  231  A    between atoms: _578  and  _579
REMARK  232  A    between atoms: _581  and  _583
REMARK  233  A    between atoms: _583  and  _584
REMARK  234  A    between atoms: _583  and  _586
REMARK  235  A    between atoms: _586  and  _587
REMARK  236  A    between atoms: _590  and  _592
REMARK  237  A    between atoms: _592  and  _593
REMARK  238  A    between atoms: _592  and  _595
REMARK  239  A    between atoms: _595  and  _596
REMARK  240  A    between atoms: _601  and  _603
REMARK  241  A    between atoms: _603  and  _604
REMARK  242  A    between atoms: _603  and  _606
REMARK  243  A    between atoms: _606  and  _607
REMARK  244  A    between atoms: _617  and  _619
REMARK  245  A    between atoms: _619  and  _620
REMARK  246  A    between atoms: _619  and  _622
REMARK  247  A    between atoms: _622  and  _623
REMARK  248  A    between atoms: _629  and  _631
REMARK  249  A    between atoms: _631  and  _632
REMARK  250  A    between atoms: _635  and  _637
REMARK  251  A    between atoms: _637  and  _638
REMARK  252  A    between atoms: _640  and  _642
REMARK  253  A    between atoms: _642  and  _643
REMARK  254  A    between atoms: _642  and  _645
REMARK  255  A    between atoms: _645  and  _646
REMARK  256  A    between atoms: _651  and  _652
REMARK  257  A    between atoms: _654  and  _656
REMARK  258  A    between atoms: _656  and  _657
REMARK  259  A    between atoms: _656  and  _659
REMARK  260  A    between atoms: _659  and  _660
REMARK  261  A    between atoms: _662  and  _664
REMARK  262  A    between atoms: _664  and  _665
REMARK                            x       y       z     vdW  Elec       q    Type
REMARK                         _______ _______ _______ _____ _____    ______ ____
ROOT
ATOM      1  CA  ASN A   7     -29.224  -2.316  36.284  0.00  0.00    +0.158 C 
ENDROOT
BRANCH   1   2
ATOM      2  C   ASN A   7     -29.970  -2.724  37.562  0.00  0.00    +0.241 C 
ATOM      3  O   ASN A   7     -29.539  -3.617  38.272  0.00  0.00    -0.273 OA
ATOM      4  N   ILE A   8     -31.068  -2.047  37.861  0.00  0.00    -0.297 N 
ATOM      5  H   ILE A   8     -31.343  -1.229  37.281  0.00  0.00    +0.150 HD
BRANCH   4   6
ATOM      6  CA  ILE A   8     -31.894  -2.438  38.996  0.00  0.00    +0.149 C 
BRANCH   6   7
ATOM      7  C   ILE A   8     -32.379  -3.847  38.844  0.00  0.00    +0.241 C 
ATOM      8  O   ILE A   8     -32.417  -4.591  39.818  0.00  0.00    -0.273 OA
ATOM      9  N   ILE A   9     -32.766  -4.222  37.633  0.00  0.00    -0.297 N 
ATOM     10  H   ILE A   9     -32.636  -3.577  36.828  0.00  0.00    +0.150 HD
BRANCH   9  11
ATOM     11  CA  ILE A   9     -33.372  -5.531  37.420  0.00  0.00    +0.149 C 
BRANCH  11  12
ATOM     12  C   ILE A   9     -32.289  -6.600  37.532  0.00  0.00    +0.241 C 
ATOM     13  O   ILE A   9     -32.450  -7.613  38.207  0.00  0.00    -0.273 OA
ATOM     14  N   MET A  10     -31.170  -6.362  36.890  0.00  0.00    -0.297 N 
ATOM     15  H   MET A  10     -31.044  -5.448  36.409  0.00  0.00    +0.150 HD
BRANCH  14  16
ATOM     16  CA  MET A  10     -30.109  -7.342  36.836  0.00  0.00    +0.149 C 
BRANCH  16  17
ATOM     17  C   MET A  10     -29.187  -7.404  38.083  0.00  0.00    +0.241 C 
ATOM     18  N   TYR A  11     -29.085  -6.301  38.826  0.00  0.00    -0.297 N 
ATOM     19  H   TYR A  11     -29.632  -5.461  38.549  0.00  0.00    +0.150 HD
ATOM     20  O   MET A  10     -28.589  -8.451  38.366  0.00  0.00    -0.273 OA
BRANCH  18  21
ATOM     21  CA  TYR A  11     -28.230  -6.223  40.023  0.00  0.00    +0.153 C 
BRANCH  21  22
ATOM     22  C   TYR A  11     -29.009  -5.950  41.301  0.00  0.00    +0.241 C 
ATOM     23  O   TYR A  11     -28.484  -5.428  42.246  0.00  0.00    -0.273 OA
ATOM     24  N   ALA A  12     -30.280  -6.350  41.330  0.00  0.00    -0.297 N 
ATOM     25  H   ALA A  12     -30.645  -6.912  40.534  0.00  0.00    +0.150 HD
BRANCH  24  26
ATOM     26  CA  ALA A  12     -31.177  -6.032  42.431  0.00  0.00    +0.149 C 
ATOM     27  CB  ALA A  12     -32.511  -6.689  42.182  0.00  0.00    +0.031 C 
BRANCH  26  28
ATOM     28  C   ALA A  12     -30.703  -6.418  43.836  0.00  0.00    +0.244 C 
ATOM     29  O   ALA A  12     -31.042  -5.726  44.799  0.00  0.00    -0.273 OA
ATOM     30  N   PRO A  13     -30.010  -7.563  43.980  0.00  0.00    -0.272 N 
ATOM     31  CA  PRO A  13     -29.478  -7.899  45.316  0.00  0.00    +0.152 C 
ATOM     32  CB  PRO A  13     -29.103  -9.383  45.193  0.00  0.00    +0.031 C 
ATOM     33  CG  PRO A  13     -29.492  -9.801  43.814  0.00  0.00    +0.024 C 
ATOM     34  CD  PRO A  13     -29.726  -8.618  42.997  0.00  0.00    +0.094 C 
BRANCH  31  35
ATOM     35  C   PRO A  13     -28.274  -7.100  45.812  0.00  0.00    +0.241 C 
ATOM     36  O   PRO A  13     -27.910  -7.235  46.987  0.00  0.00    -0.273 OA
ATOM     37  N   THR A  14     -27.658  -6.285  44.960  0.00  0.00    -0.296 N 
ATOM     38  H   THR A  14     -28.026  -6.184  43.993  0.00  0.00    +0.150 HD
BRANCH  37  39
ATOM     39  CA  THR A  14     -26.471  -5.527  45.360  0.00  0.00    +0.164 C 
BRANCH  39  40
ATOM     40  CB  THR A  14     -25.710  -4.908  44.151  0.00  0.00    +0.136 C 
ATOM     41  CG2 THR A  14     -25.365  -5.970  43.140  0.00  0.00    +0.034 C 
BRANCH  40  42
ATOM     42  OG1 THR A  14     -26.482  -3.884  43.514  0.00  0.00    -0.382 OA
ATOM     43  HG1 THR A  14     -27.333  -4.270  43.186  0.00  0.00    +0.210 HD
ENDBRANCH  40  42
ENDBRANCH  39  40
BRANCH  39  44
ATOM     44  C   THR A  14     -26.821  -4.399  46.302  0.00  0.00    +0.229 C 
ATOM     45  O   THR A  14     -27.935  -3.860  46.260  0.00  0.00    -0.286 OA
ENDBRANCH  39  44
ENDBRANCH  37  39
ENDBRANCH  31  35
ENDBRANCH  26  28
ENDBRANCH  24  26
ENDBRANCH  21  22
BRANCH  21  46
ATOM     46  CB  TYR A  11     -27.117  -5.177  39.848  0.00  0.00    +0.055 C 
BRANCH  46  47
ATOM     47  CG  TYR A  11     -26.137  -5.552  38.781  0.00  0.00    -0.020 A 
ATOM     48  CD2 TYR A  11     -25.153  -6.499  39.030  0.00  0.00    -0.001 A 
ATOM     49  CE2 TYR A  11     -24.258  -6.853  38.068  0.00  0.00    +0.036 A 
ATOM     50  CZ  TYR A  11     -24.339  -6.288  36.803  0.00  0.00    +0.134 A 
ATOM     51  CE1 TYR A  11     -25.300  -5.350  36.516  0.00  0.00    +0.036 A 
ATOM     52  CD1 TYR A  11     -26.197  -4.982  37.512  0.00  0.00    -0.001 A 
BRANCH  50  53
ATOM     53  OH  TYR A  11     -23.468  -6.673  35.831  0.00  0.00    -0.506 OA
ATOM     54  HH  TYR A  11     -22.845  -7.349  36.197  0.00  0.00    +0.292 HD
ENDBRANCH  50  53
ENDBRANCH  46  47
ENDBRANCH  21  46
ENDBRANCH  18  21
ENDBRANCH  16  17
BRANCH  16  55
ATOM     55  CB  MET A  10     -29.296  -7.092  35.569  0.00  0.00    +0.041 C 
BRANCH  55  56
ATOM     56  CG  MET A  10     -30.109  -7.309  34.277  0.00  0.00    +0.060 C 
BRANCH  56  57
ATOM     57  SD  MET A  10     -30.708  -9.007  34.041  0.00  0.00    -0.139 S 
ATOM     58  CE  MET A  10     -29.142  -9.755  33.627  0.00  0.00    +0.069 C 
ENDBRANCH  56  57
ENDBRANCH  55  56
ENDBRANCH  16  55
ENDBRANCH  14  16
ENDBRANCH  11  12
BRANCH  11  59
ATOM     59  CB  ILE A   9     -34.108  -5.598  36.037  0.00  0.00    +0.027 C 
ATOM     60  CG2 ILE A   9     -34.229  -6.999  35.542  0.00  0.00    +0.002 C 
BRANCH  59  61
ATOM     61  CG1 ILE A   9     -35.482  -4.941  36.119  0.00  0.00    +0.002 C 
ATOM     62  CD1 ILE A   9     -36.074  -4.623  34.749  0.00  0.00    +0.000 C 
ENDBRANCH  59  61
ENDBRANCH  11  59
ENDBRANCH   9  11
ENDBRANCH   6   7
BRANCH   6  63
ATOM     63  CB  ILE A   8     -33.084  -1.492  39.191  0.00  0.00    +0.027 C 
ATOM     64  CG2 ILE A   8     -34.154  -2.131  40.085  0.00  0.00    +0.002 C 
BRANCH  63  65
ATOM     65  CG1 ILE A   8     -32.586  -0.205  39.840  0.00  0.00    +0.002 C 
ATOM     66  CD1 ILE A   8     -33.658   0.879  39.957  0.00  0.00    +0.000 C 
ENDBRANCH  63  65
ENDBRANCH   6  63
ENDBRANCH   4   6
ENDBRANCH   1   2
BRANCH   1  68
ATOM     67  C   GLY A   6     -30.836  -3.034  34.626  0.00  0.00    +0.243 C 
ATOM     68  N   ASN A   7     -30.126  -2.052  35.146  0.00  0.00    -0.297 N 
ATOM     69  H   ASN A   7     -30.202  -1.092  34.754  0.00  0.00    +0.150 HD
ATOM     70  O   GLY A   6     -30.736  -4.186  35.045  0.00  0.00    -0.273 OA
BRANCH  67  71
ATOM     71  CA  GLY A   6     -31.793  -2.677  33.495  0.00  0.00    +0.176 C 
BRANCH  71  74
ATOM     72  C   LEU A   5     -33.277  -1.239  34.784  0.00  0.00    +0.241 C 
ATOM     73  O   LEU A   5     -33.563  -2.153  35.548  0.00  0.00    -0.273 OA
ATOM     74  N   GLY A   6     -32.470  -1.408  33.734  0.00  0.00    -0.295 N 
ATOM     75  H   GLY A   6     -32.321  -0.619  33.073  0.00  0.00    +0.150 HD
BRANCH  72  76
ATOM     76  CA  LEU A   5     -33.763   0.191  35.080  0.00  0.00    +0.149 C 
BRANCH  76  79
ATOM     77  C   TRP A   4     -31.688   1.299  35.775  0.00  0.00    +0.241 C 
ATOM     78  O   TRP A   4     -31.539   0.603  36.780  0.00  0.00    -0.273 OA
ATOM     79  N   LEU A   5     -32.682   1.166  34.915  0.00  0.00    -0.297 N 
ATOM     80  H   LEU A   5     -32.698   1.784  34.079  0.00  0.00    +0.150 HD
BRANCH  77  81
ATOM     81  CA  TRP A   4     -30.672   2.376  35.412  0.00  0.00    +0.153 C 
BRANCH  81  83
ATOM     82  C   SER A   3     -30.063   1.435  33.258  0.00  0.00    +0.243 C 
ATOM     83  N   TRP A   4     -30.462   2.491  33.959  0.00  0.00    -0.297 N 
ATOM     84  H   TRP A   4     -30.626   3.400  33.481  0.00  0.00    +0.150 HD
ATOM     85  O   SER A   3     -29.891   0.336  33.772  0.00  0.00    -0.273 OA
BRANCH  82  86
ATOM     86  CA  SER A   3     -29.837   1.626  31.766  0.00  0.00    +0.178 C 
BRANCH  86  89
ATOM     87  C   ASN A   2     -32.042   2.402  31.233  0.00  0.00    +0.241 C 
ATOM     88  O   ASN A   2     -32.530   1.383  31.703  0.00  0.00    -0.273 OA
ATOM     89  N   SER A   3     -30.729   2.611  31.212  0.00  0.00    -0.295 N 
ATOM     90  H   SER A   3     -30.347   3.484  30.796  0.00  0.00    +0.150 HD
BRANCH  87  91
ATOM     91  CA  ASN A   2     -32.935   3.486  30.680  0.00  0.00    +0.158 C 
BRANCH  91  93
ATOM     92  C   ILE A   1     -32.716   3.747  28.255  0.00  0.00    +0.238 C 
ATOM     93  N   ASN A   2     -33.295   3.193  29.307  0.00  0.00    -0.297 N 
ATOM     94  H   ASN A   2     -34.056   2.504  29.139  0.00  0.00    +0.150 HD
ATOM     95  O   ILE A   1     -31.821   4.577  28.341  0.00  0.00    -0.274 OA
BRANCH  92  96
ATOM     96  CA  ILE A   1     -33.211   3.267  26.894  0.00  0.00    +0.145 C 
BRANCH  96  97
ATOM     97  CB  ILE A   1     -32.155   2.306  26.283  0.00  0.00    +0.025 C 
ATOM     98  CG2 ILE A   1     -31.980   1.066  27.157  0.00  0.00    +0.002 C 
BRANCH  97  99
ATOM     99  CG1 ILE A   1     -32.536   1.906  24.850  0.00  0.00    +0.002 C 
ATOM    100  CD1 ILE A   1     -33.757   1.058  24.739  0.00  0.00    +0.000 C 
ENDBRANCH  97  99
ENDBRANCH  96  97
BRANCH  96 101
ATOM    101  N   ILE A   1     -33.425   4.434  26.051  0.00  0.00    -0.238 NA
ATOM    102  H   ILE A   1     -32.596   4.969  25.722  0.00  0.00    +0.142 HD
ENDBRANCH  96 101
ENDBRANCH  92  96
ENDBRANCH  91  93
BRANCH  91 103
ATOM    103  CB  ASN A   2     -34.214   3.532  31.523  0.00  0.00    +0.114 C 
BRANCH 103 104
ATOM    104  CG  ASN A   2     -35.112   4.684  31.136  0.00  0.00    +0.222 C 
ATOM    105  OD1 ASN A   2     -34.873   5.817  31.544  0.00  0.00    -0.275 OA
ATOM    106  ND2 ASN A   2     -36.132   4.412  30.331  0.00  0.00    -0.329 N 
ATOM    107 HD21 ASN A   2     -36.767   5.175  30.021  0.00  0.00    +0.145 HD
ATOM    108 HD22 ASN A   2     -36.296   3.436  30.011  0.00  0.00    +0.145 HD
ENDBRANCH 103 104
ENDBRANCH  91 103
ENDBRANCH  87  91
ENDBRANCH  86  89
BRANCH  86 109
ATOM    109  CB  SER A   3     -28.366   1.982  31.485  0.00  0.00    +0.166 C 
BRANCH 109 110
ATOM    110  OG  SER A   3     -27.915   3.034  32.325  0.00  0.00    -0.380 OA
ATOM    111  H   SER A   3     -28.468   3.840  32.168  0.00  0.00    +0.211 HD
ENDBRANCH 109 110
ENDBRANCH  86 109
ENDBRANCH  82  86
ENDBRANCH  81  83
BRANCH  81 112
ATOM    112  CB  TRP A   4     -31.080   3.710  35.999  0.00  0.00    +0.057 C 
BRANCH 112 113
ATOM    113  CG  TRP A   4     -32.438   4.274  35.564  0.00  0.00    -0.002 A 
ATOM    114  CD2 TRP A   4     -33.739   3.996  36.129  0.00  0.00    +0.013 A 
ATOM    115  CE3 TRP A   4     -34.204   3.136  37.127  0.00  0.00    +0.001 A 
ATOM    116  CZ3 TRP A   4     -35.529   3.105  37.407  0.00  0.00    +0.000 A 
ATOM    117  CH2 TRP A   4     -36.439   3.921  36.717  0.00  0.00    +0.001 A 
ATOM    118  CZ2 TRP A   4     -36.040   4.759  35.726  0.00  0.00    +0.017 A 
ATOM    119  CE2 TRP A   4     -34.667   4.797  35.445  0.00  0.00    +0.056 A 
ATOM    120  NE1 TRP A   4     -33.981   5.530  34.517  0.00  0.00    -0.352 N 
ATOM    121  HE1 TRP A   4     -34.402   6.212  33.854  0.00  0.00    +0.166 HD
ATOM    122  CD1 TRP A   4     -32.648   5.220  34.602  0.00  0.00    +0.068 A 
ENDBRANCH 112 113
ENDBRANCH  81 112
ENDBRANCH  77  81
ENDBRANCH  76  79
BRANCH  76 123
ATOM    123  CB  LEU A   5     -34.936   0.602  34.208  0.00  0.00    +0.029 C 
BRANCH 123 124
ATOM    124  CG  LEU A   5     -36.217  -0.243  34.340  0.00  0.00    +0.002 C 
ATOM    125  CD2 LEU A   5     -36.557  -0.481  35.810  0.00  0.00    +0.000 C 
ATOM    126  CD1 LEU A   5     -37.399   0.403  33.599  0.00  0.00    +0.000 C 
ENDBRANCH 123 124
ENDBRANCH  76 123
ENDBRANCH  72  76
ENDBRANCH  71  74
ENDBRANCH  67  71
ENDBRANCH   1  68
BRANCH   1 127
ATOM    127  CB  ASN A   7     -28.324  -1.124  36.543  0.00  0.00    +0.114 C 
BRANCH 127 128
ATOM    128  CG  ASN A   7     -27.142  -1.105  35.603  0.00  0.00    +0.222 C 
ATOM    129  OD1 ASN A   7     -26.597  -2.172  35.301  0.00  0.00    -0.275 OA
ATOM    130  ND2 ASN A   7     -26.728   0.080  35.132  0.00  0.00    -0.329 N 
ATOM    131 HD21 ASN A   7     -27.219   0.952  35.415  0.00  0.00    +0.145 HD
ATOM    132 HD22 ASN A   7     -25.916   0.127  34.484  0.00  0.00    +0.145 HD
ENDBRANCH 127 128
ENDBRANCH   1 127
TORSDOF 51
REMARK  Name = ../refined-set-2016/3hky/3hky_pocket.pdb
REMARK  262 active torsions:
REMARK  status: ('A' for Active; 'I' for Inactive)
REMARK    1  A    between atoms: _1  and  _3
REMARK    2  A    between atoms: _3  and  _4
REMARK    3  A    between atoms: _3  and  _6
REMARK    4  A    between atoms: _6  and  _7
REMARK    5  A    between atoms: _7  and  _8
REMARK    6  A    between atoms: _8  and  _9
REMARK    7  A    between atoms: _9  and  _10
REMARK    8  A    between atoms: _14  and  _16
REMARK    9  A    between atoms: _16  and  _17
REMARK   10  A    between atoms: _16  and  _19
REMARK   11  A    between atoms: _19  and  _20
REMARK   12  A    between atoms: _20  and  _21
REMARK   13  A    between atoms: _24  and  _26
REMARK   14  A    between atoms: _26  and  _27
REMARK   15  A    between atoms: _26  and  _29
REMARK   16  A    between atoms: _29  and  _30
REMARK   17  A    between atoms: _30  and  _31
REMARK   18  A    between atoms: _31  and  _32
REMARK   19  A    between atoms: _41  and  _43
REMARK   20  A    between atoms: _43  and  _44
REMARK   21  A    between atoms: _46  and  _48
REMARK   22  A    between atoms: _48  and  _49
REMARK   23  A    between atoms: _48  and  _51
REMARK   24  A    between atoms: _51  and  _52
REMARK   25  A    between atoms: _58  and  _60
REMARK   26  A    between atoms: _60  and  _61
REMARK   27  A    between atoms: _60  and  _63
REMARK   28  A    between atoms: _63  and  _64
REMARK   29  A    between atoms: _69  and  _70
REMARK   30  A    between atoms: _72  and  _74
REMARK   31  A    between atoms: _74  and  _75
REMARK   32  A    between atoms: _74  and  _77
REMARK   33  A    between atoms: _77  and  _78
REMARK   34  A    between atoms: _81  and  _82
REMARK   35  A    between atoms: _87  and  _89
REMARK   36  A    between atoms: _89  and  _90
REMARK   37  A    between atoms: _89  and  _92
REMARK   38  A    between atoms: _92  and  _93
REMARK   39  A    between atoms: _93  and  _94
REMARK   40  A    between atoms: _94  and  _95
REMARK   41  A    between atoms: _95  and  _96
REMARK   42  A    between atoms: _100  and  _102
REMARK   43  A    between atoms: _102  and  _103
REMARK   44  A    between atoms: _102  and  _105
REMARK   45  A    between atoms: _105  and  _106
REMARK   46  A    between atoms: _106  and  _107
REMARK   47  A    between atoms: _112  and  _114
REMARK   48  A    between atoms: _114  and  _115
REMARK   49  A    between atoms: _114  and  _117
REMARK   50  A    between atoms: _117  and  _118
REMARK   51  A    between atoms: _118  and  _119
REMARK   52  A    between atoms: _119  and  _120
REMARK   53  A    between atoms: _129  and  _131
REMARK   54  A    between atoms: _131  and  _132
REMARK   55  A    between atoms: _131  and  _134
REMARK   56  A    between atoms: _137  and  _139
REMARK   57  A    between atoms: _139  and  _140
REMARK   58  A    between atoms: _139  and  _142
REMARK   59  A    between atoms: _142  and  _143
REMARK   60  A    between atoms: _146  and  _148
REMARK   61  A    between atoms: _148  and  _149
REMARK   62  A    between atoms: _148  and  _151
REMARK   63  A    between atoms: _151  and  _152
REMARK   64  A    between atoms: _155  and  _157
REMARK   65  A    between atoms: _157  and  _158
REMARK   66  A    between atoms: _157  and  _160
REMARK   67  A    between atoms: _160  and  _161
REMARK   68  A    between atoms: _163  and  _165
REMARK   69  A    between atoms: _165  and  _166
REMARK   70  A    between atoms: _165  and  _168
REMARK   71  A    between atoms: _168  and  _169
REMARK   72  A    between atoms: _172  and  _174
REMARK   73  A    between atoms: _174  and  _175
REMARK   74  A    between atoms: _174  and  _177
REMARK   75  A    between atoms: _177  and  _178
REMARK   76  A    between atoms: _180  and  _182
REMARK   77  A    between atoms: _182  and  _183
REMARK   78  A    between atoms: _182  and  _185
REMARK   79  A    between atoms: _185  and  _186
REMARK   80  A    between atoms: _191  and  _193
REMARK   81  A    between atoms: _193  and  _194
REMARK   82  A    between atoms: _193  and  _196
REMARK   83  A    between atoms: _196  and  _197
REMARK   84  A    between atoms: _200  and  _202
REMARK   85  A    between atoms: _202  and  _203
REMARK   86  A    between atoms: _202  and  _205
REMARK   87  A    between atoms: _205  and  _206
REMARK   88  A    between atoms: _211  and  _213
REMARK   89  A    between atoms: _213  and  _214
REMARK   90  A    between atoms: _216  and  _218
REMARK   91  A    between atoms: _218  and  _219
REMARK   92  A    between atoms: _218  and  _221
REMARK   93  A    between atoms: _221  and  _222
REMARK   94  A    between atoms: _225  and  _227
REMARK   95  A    between atoms: _227  and  _228
REMARK   96  A    between atoms: _227  and  _230
REMARK   97  A    between atoms: _230  and  _231
REMARK   98  A    between atoms: _234  and  _236
REMARK   99  A    between atoms: _236  and  _237
REMARK  100  A    between atoms: _236  and  _239
REMARK  101  A    between atoms: _239  and  _240
REMARK  102  A    between atoms: _242  and  _244
REMARK  103  A    between atoms: _244  and  _245
REMARK  104  A    between atoms: _244  and  _247
REMARK  105  A    between atoms: _249  and  _251
REMARK  106  A    between atoms: _251  and  _252
REMARK  107  A    between atoms: _251  and  _254
REMARK  108  A    between atoms: _254  and  _255
REMARK  109  A    between atoms: _257  and  _259
REMARK  110  A    between atoms: _259  and  _260
REMARK  111  A    between atoms: _259  and  _262
REMARK  112  A    between atoms: _262  and  _263
REMARK  113  A    between atoms: _265  and  _267
REMARK  114  A    between atoms: _267  and  _268
REMARK  115  A    between atoms: _267  and  _270
REMARK  116  A    between atoms: _270  and  _271
REMARK  117  A    between atoms: _276  and  _278
REMARK  118  A    between atoms: _278  and  _279
REMARK  119  A    between atoms: _278  and  _281
REMARK  120  A    between atoms: _281  and  _282
REMARK  121  A    between atoms: _287  and  _288
REMARK  122  A    between atoms: _290  and  _292
REMARK  123  A    between atoms: _292  and  _293
REMARK  124  A    between atoms: _292  and  _295
REMARK  125  A    between atoms: _295  and  _296
REMARK  126  A    between atoms: _299  and  _301
REMARK  127  A    between atoms: _301  and  _302
REMARK  128  A    between atoms: _301  and  _304
REMARK  129  A    between atoms: _304  and  _305
REMARK  130  A    between atoms: _308  and  _310
REMARK  131  A    between atoms: _310  and  _311
REMARK  132  A    between atoms: _310  and  _313
REMARK  133  A    between atoms: _313  and  _314
REMARK  134  A    between atoms: _314  and  _315
REMARK  135  A    between atoms: _315  and  _316
REMARK  136  A    between atoms: _326  and  _327
REMARK  137  A    between atoms: _332  and  _334
REMARK  138  A    between atoms: _334  and  _335
REMARK  139  A    between atoms: _334  and  _337
REMARK  140  A    between atoms: _337  and  _338
REMARK  141  A    between atoms: _338  and  _339
REMARK  142  A    between atoms: _339  and  _340
REMARK  143  A    between atoms: _349  and  _351
REMARK  144  A    between atoms: _351  and  _352
REMARK  145  A    between atoms: _351  and  _354
REMARK  146  A    between atoms: _354  and  _355
REMARK  147  A    between atoms: _355  and  _356
REMARK  148  A    between atoms: _359  and  _361
REMARK  149  A    between atoms: _361  and  _362
REMARK  150  A    between atoms: _361  and  _364
REMARK  151  A    between atoms: _364  and  _365
REMARK  152  A    between atoms: _368  and  _370
REMARK  153  A    between atoms: _370  and  _371
REMARK  154  A    between atoms: _370  and  _373
REMARK  155  A    between atoms: _373  and  _374
REMARK  156  A    between atoms: _379  and  _381
REMARK  157  A    between atoms: _381  and  _382
REMARK  158  A    between atoms: _381  and  _384
REMARK  159  A    between atoms: _384  and  _385
REMARK  160  A    between atoms: _387  and  _389
REMARK  161  A    between atoms: _389  and  _390
REMARK  162  A    between atoms: _389  and  _392
REMARK  163  A    between atoms: _392  and  _393
REMARK  164  A    between atoms: _403  and  _405
REMARK  165  A    between atoms: _405  and  _406
REMARK  166  A    between atoms: _405  and  _408
REMARK  167  A    between atoms: _408  and  _409
REMARK  168  A    between atoms: _412  and  _414
REMARK  169  A    between atoms: _414  and  _415
REMARK  170  A    between atoms: _417  and  _419
REMARK  171  A    between atoms: _419  and  _420
REMARK  172  A    between atoms: _419  and  _422
REMARK  173  A    between atoms: _422  and  _423
REMARK  174  A    between atoms: _428  and  _430
REMARK  175  A    between atoms: _430  and  _431
REMARK  176  A    between atoms: _430  and  _433
REMARK  177  A    between atoms: _433  and  _434
REMARK  178  A    between atoms: _437  and  _439
REMARK  179  A    between atoms: _439  and  _440
REMARK  180  A    between atoms: _439  and  _442
REMARK  181  A    between atoms: _442  and  _443
REMARK  182  A    between atoms: _446  and  _448
REMARK  183  A    between atoms: _448  and  _449
REMARK  184  A    between atoms: _448  and  _451
REMARK  185  A    between atoms: _451  and  _452
REMARK  186  A    between atoms: _452  and  _453
REMARK  187  A    between atoms: _455  and  _457
REMARK  188  A    between atoms: _457  and  _458
REMARK  189  A    between atoms: _457  and  _460
REMARK  190  A    between atoms: _460  and  _461
REMARK  191  A    between atoms: _466  and  _467
REMARK  192  A    between atoms: _469  and  _471
REMARK  193  A    between atoms: _471  and  _472
REMARK  194  A    between atoms: _476  and  _477
REMARK  195  A    between atoms: _482  and  _484
REMARK  196  A    between atoms: _484  and  _485
REMARK  197  A    between atoms: _484  and  _487
REMARK  198  A    between atoms: _487  and  _488
REMARK  199  A    between atoms: _491  and  _493
REMARK  200  A    between atoms: _493  and  _494
REMARK  201  A    between atoms: _493  and  _496
REMARK  202  A    between atoms: _496  and  _497
REMARK  203  A    between atoms: _507  and  _509
REMARK  204  A    between atoms: _509  and  _510
REMARK  205  A    between atoms: _509  and  _512
REMARK  206  A    between atoms: _514  and  _516
REMARK  207  A    between atoms: _516  and  _517
REMARK  208  A    between atoms: _516  and  _519
REMARK  209  A    between atoms: _519  and  _520
REMARK  210  A    between atoms: _520  and  _521
REMARK  211  A    between atoms: _526  and  _528
REMARK  212  A    between atoms: _528  and  _529
REMARK  213  A    between atoms: _528  and  _531
REMARK  214  A    between atoms: _531  and  _532
REMARK  215  A    between atoms: _535  and  _537
REMARK  216  A    between atoms: _537  and  _538
REMARK  217  A    between atoms: _537  and  _540
REMARK  218  A    between atoms: _540  and  _541
REMARK  219  A    between atoms: _546  and  _547
REMARK  220  A    between atoms: _549  and  _551
REMARK  221  A    between atoms: _551  and  _552
REMARK  222  A    between atoms: _554  and  _556
REMARK  223  A    between atoms: _556  and  _557
REMARK  224  A    between atoms: _560  and  _562
REMARK  225  A    between atoms: _562  and  _563
REMARK  226  A    between atoms: _562  and  _565
REMARK  227  A    between atoms: _567  and  _569
REMARK  228  A    between atoms: _569  and  _570
REMARK  229  A    between atoms: _569  and  _572
REMARK  230  A    between atoms: _572  and  _573
REMARK  231  A    between atoms: _578  and  _579
REMARK  232  A    between atoms: _581  and  _583
REMARK  233  A    between atoms: _583  and  _584
REMARK  234  A    between atoms: _583  and  _586
REMARK  235  A    between atoms: _586  and  _587
REMARK  236  A    between atoms: _590  and  _592
REMARK  237  A    between atoms: _592  and  _593
REMARK  238  A    between atoms: _592  and  _595
REMARK  239  A    between atoms: _595  and  _596
REMARK  240  A    between atoms: _601  and  _603
REMARK  241  A    between atoms: _603  and  _604
REMARK  242  A    between atoms: _603  and  _606
REMARK  243  A    between atoms: _606  and  _607
REMARK  244  A    between atoms: _617  and  _619
REMARK  245  A    between atoms: _619  and  _620
REMARK  246  A    between atoms: _619  and  _622
REMARK  247  A    between atoms: _622  and  _623
REMARK  248  A    between atoms: _629  and  _631
REMARK  249  A    between atoms: _631  and  _632
REMARK  250  A    between atoms: _635  and  _637
REMARK  251  A    between atoms: _637  and  _638
REMARK  252  A    between atoms: _640  and  _642
REMARK  253  A    between atoms: _642  and  _643
REMARK  254  A    between atoms: _642  and  _645
REMARK  255  A    between atoms: _645  and  _646
REMARK  256  A    between atoms: _651  and  _652
REMARK  257  A    between atoms: _654  and  _656
REMARK  258  A    between atoms: _656  and  _657
REMARK  259  A    between atoms: _656  and  _659
REMARK  260  A    between atoms: _659  and  _660
REMARK  261  A    between atoms: _662  and  _664
REMARK  262  A    between atoms: _664  and  _665
REMARK                            x       y       z     vdW  Elec       q    Type
REMARK                         _______ _______ _______ _____ _____    ______ ____
ROOT
ATOM      1  CG  TRP A   1     -24.169  -1.003  43.706  0.00  0.00    -0.002 A 
ATOM      2  CD1 TRP A   1     -23.335  -2.046  43.982  0.00  0.00    +0.068 A 
ATOM      3  NE1 TRP A   1     -23.232  -2.869  42.891  0.00  0.00    -0.352 N 
ATOM      4  HE1 TRP A   1     -22.672  -3.745  42.849  0.00  0.00    +0.166 HD
ATOM      5  CE2 TRP A   1     -23.979  -2.359  41.869  0.00  0.00    +0.056 A 
ATOM      6  CZ2 TRP A   1     -24.191  -2.844  40.588  0.00  0.00    +0.017 A 
ATOM      7  CH2 TRP A   1     -25.035  -2.135  39.776  0.00  0.00    +0.001 A 
ATOM      8  CZ3 TRP A   1     -25.639  -0.957  40.206  0.00  0.00    +0.000 A 
ATOM      9  CE3 TRP A   1     -25.438  -0.474  41.482  0.00  0.00    +0.001 A 
ATOM     10  CD2 TRP A   1     -24.606  -1.192  42.347  0.00  0.00    +0.013 A 
ENDROOT
BRANCH   1  11
ATOM     11  CB  TRP A   1     -24.532   0.106  44.623  0.00  0.00    +0.053 C 
BRANCH  11  12
ATOM     12  CA  TRP A   1     -25.721  -0.166  45.530  0.00  0.00    +0.137 C 
BRANCH  12  13
ATOM     13  N   TRP A   1     -25.569  -1.415  46.256  0.00  0.00    -0.239 NA
ATOM     14  H   TRP A   1     -24.939  -2.152  45.881  0.00  0.00    +0.142 HD
ENDBRANCH  12  13
BRANCH  12  15
ATOM     15  C   TRP A   1     -27.004  -0.019  44.720  0.00  0.00    +0.224 C 
ATOM     16  O   TRP A   1     -27.497   1.097  44.595  0.00  0.00    -0.287 OA
ENDBRANCH  12  15
ENDBRANCH  11  12
ENDBRANCH   1  11
TORSDOF 4
REMARK  Name = ../refined-set-2016/3hky/3hky_pocket.pdb
REMARK  262 active torsions:
REMARK  status: ('A' for Active; 'I' for Inactive)
REMARK    1  A    between atoms: _1  and  _3
REMARK    2  A    between atoms: _3  and  _4
REMARK    3  A    between atoms: _3  and  _6
REMARK    4  A    between atoms: _6  and  _7
REMARK    5  A    between atoms: _7  and  _8
REMARK    6  A    between atoms: _8  and  _9
REMARK    7  A    between atoms: _9  and  _10
REMARK    8  A    between atoms: _14  and  _16
REMARK    9  A    between atoms: _16  and  _17
REMARK   10  A    between atoms: _16  and  _19
REMARK   11  A    between atoms: _19  and  _20
REMARK   12  A    between atoms: _20  and  _21
REMARK   13  A    between atoms: _24  and  _26
REMARK   14  A    between atoms: _26  and  _27
REMARK   15  A    between atoms: _26  and  _29
REMARK   16  A    between atoms: _29  and  _30
REMARK   17  A    between atoms: _30  and  _31
REMARK   18  A    between atoms: _31  and  _32
REMARK   19  A    between atoms: _41  and  _43
REMARK   20  A    between atoms: _43  and  _44
REMARK   21  A    between atoms: _46  and  _48
REMARK   22  A    between atoms: _48  and  _49
REMARK   23  A    between atoms: _48  and  _51
REMARK   24  A    between atoms: _51  and  _52
REMARK   25  A    between atoms: _58  and  _60
REMARK   26  A    between atoms: _60  and  _61
REMARK   27  A    between atoms: _60  and  _63
REMARK   28  A    between atoms: _63  and  _64
REMARK   29  A    between atoms: _69  and  _70
REMARK   30  A    between atoms: _72  and  _74
REMARK   31  A    between atoms: _74  and  _75
REMARK   32  A    between atoms: _74  and  _77
REMARK   33  A    between atoms: _77  and  _78
REMARK   34  A    between atoms: _81  and  _82
REMARK   35  A    between atoms: _87  and  _89
REMARK   36  A    between atoms: _89  and  _90
REMARK   37  A    between atoms: _89  and  _92
REMARK   38  A    between atoms: _92  and  _93
REMARK   39  A    between atoms: _93  and  _94
REMARK   40  A    between atoms: _94  and  _95
REMARK   41  A    between atoms: _95  and  _96
REMARK   42  A    between atoms: _100  and  _102
REMARK   43  A    between atoms: _102  and  _103
REMARK   44  A    between atoms: _102  and  _105
REMARK   45  A    between atoms: _105  and  _106
REMARK   46  A    between atoms: _106  and  _107
REMARK   47  A    between atoms: _112  and  _114
REMARK   48  A    between atoms: _114  and  _115
REMARK   49  A    between atoms: _114  and  _117
REMARK   50  A    between atoms: _117  and  _118
REMARK   51  A    between atoms: _118  and  _119
REMARK   52  A    between atoms: _119  and  _120
REMARK   53  A    between atoms: _129  and  _131
REMARK   54  A    between atoms: _131  and  _132
REMARK   55  A    between atoms: _131  and  _134
REMARK   56  A    between atoms: _137  and  _139
REMARK   57  A    between atoms: _139  and  _140
REMARK   58  A    between atoms: _139  and  _142
REMARK   59  A    between atoms: _142  and  _143
REMARK   60  A    between atoms: _146  and  _148
REMARK   61  A    between atoms: _148  and  _149
REMARK   62  A    between atoms: _148  and  _151
REMARK   63  A    between atoms: _151  and  _152
REMARK   64  A    between atoms: _155  and  _157
REMARK   65  A    between atoms: _157  and  _158
REMARK   66  A    between atoms: _157  and  _160
REMARK   67  A    between atoms: _160  and  _161
REMARK   68  A    between atoms: _163  and  _165
REMARK   69  A    between atoms: _165  and  _166
REMARK   70  A    between atoms: _165  and  _168
REMARK   71  A    between atoms: _168  and  _169
REMARK   72  A    between atoms: _172  and  _174
REMARK   73  A    between atoms: _174  and  _175
REMARK   74  A    between atoms: _174  and  _177
REMARK   75  A    between atoms: _177  and  _178
REMARK   76  A    between atoms: _180  and  _182
REMARK   77  A    between atoms: _182  and  _183
REMARK   78  A    between atoms: _182  and  _185
REMARK   79  A    between atoms: _185  and  _186
REMARK   80  A    between atoms: _191  and  _193
REMARK   81  A    between atoms: _193  and  _194
REMARK   82  A    between atoms: _193  and  _196
REMARK   83  A    between atoms: _196  and  _197
REMARK   84  A    between atoms: _200  and  _202
REMARK   85  A    between atoms: _202  and  _203
REMARK   86  A    between atoms: _202  and  _205
REMARK   87  A    between atoms: _205  and  _206
REMARK   88  A    between atoms: _211  and  _213
REMARK   89  A    between atoms: _213  and  _214
REMARK   90  A    between atoms: _216  and  _218
REMARK   91  A    between atoms: _218  and  _219
REMARK   92  A    between atoms: _218  and  _221
REMARK   93  A    between atoms: _221  and  _222
REMARK   94  A    between atoms: _225  and  _227
REMARK   95  A    between atoms: _227  and  _228
REMARK   96  A    between atoms: _227  and  _230
REMARK   97  A    between atoms: _230  and  _231
REMARK   98  A    between atoms: _234  and  _236
REMARK   99  A    between atoms: _236  and  _237
REMARK  100  A    between atoms: _236  and  _239
REMARK  101  A    between atoms: _239  and  _240
REMARK  102  A    between atoms: _242  and  _244
REMARK  103  A    between atoms: _244  and  _245
REMARK  104  A    between atoms: _244  and  _247
REMARK  105  A    between atoms: _249  and  _251
REMARK  106  A    between atoms: _251  and  _252
REMARK  107  A    between atoms: _251  and  _254
REMARK  108  A    between atoms: _254  and  _255
REMARK  109  A    between atoms: _257  and  _259
REMARK  110  A    between atoms: _259  and  _260
REMARK  111  A    between atoms: _259  and  _262
REMARK  112  A    between atoms: _262  and  _263
REMARK  113  A    between atoms: _265  and  _267
REMARK  114  A    between atoms: _267  and  _268
REMARK  115  A    between atoms: _267  and  _270
REMARK  116  A    between atoms: _270  and  _271
REMARK  117  A    between atoms: _276  and  _278
REMARK  118  A    between atoms: _278  and  _279
REMARK  119  A    between atoms: _278  and  _281
REMARK  120  A    between atoms: _281  and  _282
REMARK  121  A    between atoms: _287  and  _288
REMARK  122  A    between atoms: _290  and  _292
REMARK  123  A    between atoms: _292  and  _293
REMARK  124  A    between atoms: _292  and  _295
REMARK  125  A    between atoms: _295  and  _296
REMARK  126  A    between atoms: _299  and  _301
REMARK  127  A    between atoms: _301  and  _302
REMARK  128  A    between atoms: _301  and  _304
REMARK  129  A    between atoms: _304  and  _305
REMARK  130  A    between atoms: _308  and  _310
REMARK  131  A    between atoms: _310  and  _311
REMARK  132  A    between atoms: _310  and  _313
REMARK  133  A    between atoms: _313  and  _314
REMARK  134  A    between atoms: _314  and  _315
REMARK  135  A    between atoms: _315  and  _316
REMARK  136  A    between atoms: _326  and  _327
REMARK  137  A    between atoms: _332  and  _334
REMARK  138  A    between atoms: _334  and  _335
REMARK  139  A    between atoms: _334  and  _337
REMARK  140  A    between atoms: _337  and  _338
REMARK  141  A    between atoms: _338  and  _339
REMARK  142  A    between atoms: _339  and  _340
REMARK  143  A    between atoms: _349  and  _351
REMARK  144  A    between atoms: _351  and  _352
REMARK  145  A    between atoms: _351  and  _354
REMARK  146  A    between atoms: _354  and  _355
REMARK  147  A    between atoms: _355  and  _356
REMARK  148  A    between atoms: _359  and  _361
REMARK  149  A    between atoms: _361  and  _362
REMARK  150  A    between atoms: _361  and  _364
REMARK  151  A    between atoms: _364  and  _365
REMARK  152  A    between atoms: _368  and  _370
REMARK  153  A    between atoms: _370  and  _371
REMARK  154  A    between atoms: _370  and  _373
REMARK  155  A    between atoms: _373  and  _374
REMARK  156  A    between atoms: _379  and  _381
REMARK  157  A    between atoms: _381  and  _382
REMARK  158  A    between atoms: _381  and  _384
REMARK  159  A    between atoms: _384  and  _385
REMARK  160  A    between atoms: _387  and  _389
REMARK  161  A    between atoms: _389  and  _390
REMARK  162  A    between atoms: _389  and  _392
REMARK  163  A    between atoms: _392  and  _393
REMARK  164  A    between atoms: _403  and  _405
REMARK  165  A    between atoms: _405  and  _406
REMARK  166  A    between atoms: _405  and  _408
REMARK  167  A    between atoms: _408  and  _409
REMARK  168  A    between atoms: _412  and  _414
REMARK  169  A    between atoms: _414  and  _415
REMARK  170  A    between atoms: _417  and  _419
REMARK  171  A    between atoms: _419  and  _420
REMARK  172  A    between atoms: _419  and  _422
REMARK  173  A    between atoms: _422  and  _423
REMARK  174  A    between atoms: _428  and  _430
REMARK  175  A    between atoms: _430  and  _431
REMARK  176  A    between atoms: _430  and  _433
REMARK  177  A    between atoms: _433  and  _434
REMARK  178  A    between atoms: _437  and  _439
REMARK  179  A    between atoms: _439  and  _440
REMARK  180  A    between atoms: _439  and  _442
REMARK  181  A    between atoms: _442  and  _443
REMARK  182  A    between atoms: _446  and  _448
REMARK  183  A    between atoms: _448  and  _449
REMARK  184  A    between atoms: _448  and  _451
REMARK  185  A    between atoms: _451  and  _452
REMARK  186  A    between atoms: _452  and  _453
REMARK  187  A    between atoms: _455  and  _457
REMARK  188  A    between atoms: _457  and  _458
REMARK  189  A    between atoms: _457  and  _460
REMARK  190  A    between atoms: _460  and  _461
REMARK  191  A    between atoms: _466  and  _467
REMARK  192  A    between atoms: _469  and  _471
REMARK  193  A    between atoms: _471  and  _472
REMARK  194  A    between atoms: _476  and  _477
REMARK  195  A    between atoms: _482  and  _484
REMARK  196  A    between atoms: _484  and  _485
REMARK  197  A    between atoms: _484  and  _487
REMARK  198  A    between atoms: _487  and  _488
REMARK  199  A    between atoms: _491  and  _493
REMARK  200  A    between atoms: _493  and  _494
REMARK  201  A    between atoms: _493  and  _496
REMARK  202  A    between atoms: _496  and  _497
REMARK  203  A    between atoms: _507  and  _509
REMARK  204  A    between atoms: _509  and  _510
REMARK  205  A    between atoms: _509  and  _512
REMARK  206  A    between atoms: _514  and  _516
REMARK  207  A    between atoms: _516  and  _517
REMARK  208  A    between atoms: _516  and  _519
REMARK  209  A    between atoms: _519  and  _520
REMARK  210  A    between atoms: _520  and  _521
REMARK  211  A    between atoms: _526  and  _528
REMARK  212  A    between atoms: _528  and  _529
REMARK  213  A    between atoms: _528  and  _531
REMARK  214  A    between atoms: _531  and  _532
REMARK  215  A    between atoms: _535  and  _537
REMARK  216  A    between atoms: _537  and  _538
REMARK  217  A    between atoms: _537  and  _540
REMARK  218  A    between atoms: _540  and  _541
REMARK  219  A    between atoms: _546  and  _547
REMARK  220  A    between atoms: _549  and  _551
REMARK  221  A    between atoms: _551  and  _552
REMARK  222  A    between atoms: _554  and  _556
REMARK  223  A    between atoms: _556  and  _557
REMARK  224  A    between atoms: _560  and  _562
REMARK  225  A    between atoms: _562  and  _563
REMARK  226  A    between atoms: _562  and  _565
REMARK  227  A    between atoms: _567  and  _569
REMARK  228  A    between atoms: _569  and  _570
REMARK  229  A    between atoms: _569  and  _572
REMARK  230  A    between atoms: _572  and  _573
REMARK  231  A    between atoms: _578  and  _579
REMARK  232  A    between atoms: _581  and  _583
REMARK  233  A    between atoms: _583  and  _584
REMARK  234  A    between atoms: _583  and  _586
REMARK  235  A    between atoms: _586  and  _587
REMARK  236  A    between atoms: _590  and  _592
REMARK  237  A    between atoms: _592  and  _593
REMARK  238  A    between atoms: _592  and  _595
REMARK  239  A    between atoms: _595  and  _596
REMARK  240  A    between atoms: _601  and  _603
REMARK  241  A    between atoms: _603  and  _604
REMARK  242  A    between atoms: _603  and  _606
REMARK  243  A    between atoms: _606  and  _607
REMARK  244  A    between atoms: _617  and  _619
REMARK  245  A    between atoms: _619  and  _620
REMARK  246  A    between atoms: _619  and  _622
REMARK  247  A    between atoms: _622  and  _623
REMARK  248  A    between atoms: _629  and  _631
REMARK  249  A    between atoms: _631  and  _632
REMARK  250  A    between atoms: _635  and  _637
REMARK  251  A    between atoms: _637  and  _638
REMARK  252  A    between atoms: _640  and  _642
REMARK  253  A    between atoms: _642  and  _643
REMARK  254  A    between atoms: _642  and  _645
REMARK  255  A    between atoms: _645  and  _646
REMARK  256  A    between atoms: _651  and  _652
REMARK  257  A    between atoms: _654  and  _656
REMARK  258  A    between atoms: _656  and  _657
REMARK  259  A    between atoms: _656  and  _659
REMARK  260  A    between atoms: _659  and  _660
REMARK  261  A    between atoms: _662  and  _664
REMARK  262  A    between atoms: _664  and  _665
REMARK                            x       y       z     vdW  Elec       q    Type
REMARK                         _______ _______ _______ _____ _____    ______ ____
ROOT
ATOM      1  CA  TYR A   4     -29.475  -9.345  27.351  0.00  0.00    +0.153 C 
ENDROOT
BRANCH   1   3
ATOM      2  C   ILE A   3     -31.500  -8.234  28.153  0.00  0.00    +0.241 C 
ATOM      3  N   TYR A   4     -30.222  -8.564  28.326  0.00  0.00    -0.297 N 
ATOM      4  H   TYR A   4     -29.738  -8.251  29.192  0.00  0.00    +0.150 HD
ATOM      5  O   ILE A   3     -32.138  -8.600  27.162  0.00  0.00    -0.273 OA
BRANCH   2   6
ATOM      6  CA  ILE A   3     -32.122  -7.325  29.204  0.00  0.00    +0.149 C 
BRANCH   6   9
ATOM      7  C   GLN A   2     -32.169  -4.876  28.814  0.00  0.00    +0.241 C 
ATOM      8  O   GLN A   2     -31.692  -4.583  29.884  0.00  0.00    -0.273 OA
ATOM      9  N   ILE A   3     -32.472  -6.124  28.452  0.00  0.00    -0.297 N 
ATOM     10  H   ILE A   3     -32.999  -6.251  27.564  0.00  0.00    +0.150 HD
BRANCH   7  11
ATOM     11  CA  GLN A   2     -32.514  -3.790  27.819  0.00  0.00    +0.149 C 
BRANCH  11  13
ATOM     12  C   CYS A   1     -34.313  -2.194  28.325  0.00  0.00    +0.239 C 
ATOM     13  N   GLN A   2     -33.066  -2.616  28.490  0.00  0.00    -0.297 N 
ATOM     14  H   GLN A   2     -32.447  -2.081  29.133  0.00  0.00    +0.150 HD
ATOM     15  O   CYS A   1     -35.119  -2.704  27.529  0.00  0.00    -0.274 OA
BRANCH  12  16
ATOM     16  CA  CYS A   1     -34.724  -0.999  29.177  0.00  0.00    +0.156 C 
BRANCH  16  17
ATOM     17  N   CYS A   1     -36.080  -0.604  28.816  0.00  0.00    -0.237 NA
ATOM     18  H   CYS A   1     -36.789  -1.342  28.631  0.00  0.00    +0.142 HD
ENDBRANCH  16  17
BRANCH  16  19
ATOM     19  CB  CYS A   1     -34.635  -1.352  30.653  0.00  0.00    +0.095 C 
ATOM     20  SG  CYS A   1     -35.781  -2.620  31.156  0.00  0.00    -0.080 S 
ENDBRANCH  16  19
ENDBRANCH  12  16
ENDBRANCH  11  13
BRANCH  11  21
ATOM     21  CB  GLN A   2     -31.275  -3.408  27.010  0.00  0.00    +0.039 C 
BRANCH  21  22
ATOM     22  CG  GLN A   2     -31.612  -2.653  25.758  0.00  0.00    +0.087 C 
BRANCH  22  23
ATOM     23  CD  GLN A   2     -30.426  -2.005  25.110  0.00  0.00    +0.219 C 
ATOM     24  OE1 GLN A   2     -29.492  -1.566  25.784  0.00  0.00    -0.275 OA
ATOM     25  NE2 GLN A   2     -30.451  -1.932  23.793  0.00  0.00    -0.329 N 
ATOM     26 HE21 GLN A   2     -29.661  -1.490  23.282  0.00  0.00    +0.145 HD
ATOM     27 HE22 GLN A   2     -31.261  -2.317  23.266  0.00  0.00    +0.145 HD
ENDBRANCH  22  23
ENDBRANCH  21  22
ENDBRANCH  11  21
ENDBRANCH   7  11
ENDBRANCH   6   9
BRANCH   6  28
ATOM     28  CB  ILE A   3     -33.371  -8.051  29.829  0.00  0.00    +0.027 C 
ATOM     29  CG2 ILE A   3     -32.943  -9.329  30.559  0.00  0.00    +0.002 C 
BRANCH  28  30
ATOM     30  CG1 ILE A   3     -34.184  -7.128  30.750  0.00  0.00    +0.002 C 
ATOM     31  CD1 ILE A   3     -33.394  -6.535  31.930  0.00  0.00    +0.000 C 
ENDBRANCH  28  30
ENDBRANCH   6  28
ENDBRANCH   2   6
ENDBRANCH   1   3
BRANCH   1  32
ATOM     32  C   TYR A   4     -29.634  -8.779  25.954  0.00  0.00    +0.241 C 
ATOM     33  N   GLY A   5     -29.653  -7.450  25.875  0.00  0.00    -0.295 N 
ATOM     34  H   GLY A   5     -29.747  -6.898  26.752  0.00  0.00    +0.150 HD
ATOM     35  O   TYR A   4     -29.643  -9.507  24.973  0.00  0.00    -0.273 OA
BRANCH  33  36
ATOM     36  CA  GLY A   5     -29.548  -6.745  24.619  0.00  0.00    +0.176 C 
BRANCH  36  37
ATOM     37  C   GLY A   5     -30.875  -6.456  23.948  0.00  0.00    +0.243 C 
ATOM     38  N   ALA A   6     -31.934  -7.173  24.336  0.00  0.00    -0.297 N 
ATOM     39  H   ALA A   6     -31.801  -7.931  25.035  0.00  0.00    +0.150 HD
ATOM     40  O   GLY A   5     -30.930  -5.593  23.088  0.00  0.00    -0.273 OA
BRANCH  38  41
ATOM     41  CA  ALA A   6     -33.260  -6.926  23.812  0.00  0.00    +0.149 C 
ATOM     42  CB  ALA A   6     -34.070  -8.191  23.851  0.00  0.00    +0.031 C 
BRANCH  41  43
ATOM     43  C   ALA A   6     -33.968  -5.869  24.631  0.00  0.00    +0.241 C 
ATOM     44  O   ALA A   6     -33.787  -5.790  25.838  0.00  0.00    -0.273 OA
ATOM     45  N   CYS A   7     -34.872  -5.136  23.985  0.00  0.00    -0.296 N 
ATOM     46  H   CYS A   7     -35.129  -5.391  23.010  0.00  0.00    +0.150 HD
BRANCH  45  47
ATOM     47  CA  CYS A   7     -35.505  -3.993  24.607  0.00  0.00    +0.160 C 
BRANCH  47  48
ATOM     48  C   CYS A   7     -36.864  -4.436  25.138  0.00  0.00    +0.242 C 
ATOM     49  N   TYR A   8     -37.179  -4.041  26.370  0.00  0.00    -0.298 N 
ATOM     50  H   TYR A   8     -36.512  -3.431  26.884  0.00  0.00    +0.150 HD
ATOM     51  O   CYS A   7     -37.573  -5.167  24.460  0.00  0.00    -0.273 OA
BRANCH  49  52
ATOM     52  CA  TYR A   8     -38.435  -4.434  27.035  0.00  0.00    +0.141 C 
BRANCH  52  53
ATOM     53  C   TYR A   8     -39.024  -3.177  27.594  0.00  0.00    +0.227 C 
ATOM     54  O   TYR A   8     -38.281  -2.290  27.994  0.00  0.00    -0.286 OA
ENDBRANCH  52  53
BRANCH  52  55
ATOM     55  CB  TYR A   8     -38.181  -5.371  28.211  0.00  0.00    +0.054 C 
BRANCH  55  56
ATOM     56  CG  TYR A   8     -37.693  -6.727  27.827  0.00  0.00    -0.020 A 
ATOM     57  CD2 TYR A   8     -38.544  -7.809  27.757  0.00  0.00    -0.001 A 
ATOM     58  CE2 TYR A   8     -38.077  -9.060  27.398  0.00  0.00    +0.036 A 
ATOM     59  CZ  TYR A   8     -36.737  -9.229  27.138  0.00  0.00    +0.134 A 
ATOM     60  CE1 TYR A   8     -35.888  -8.174  27.206  0.00  0.00    +0.036 A 
ATOM     61  CD1 TYR A   8     -36.349  -6.938  27.568  0.00  0.00    -0.001 A 
BRANCH  59  62
ATOM     62  OH  TYR A   8     -36.225 -10.443  26.773  0.00  0.00    -0.506 OA
ATOM     63  HH  TYR A   8     -35.249 -10.359  26.631  0.00  0.00    +0.292 HD
ENDBRANCH  59  62
ENDBRANCH  55  56
ENDBRANCH  52  55
ENDBRANCH  49  52
ENDBRANCH  47  48
BRANCH  47  64
ATOM     64  CB  CYS A   7     -35.645  -2.862  23.584  0.00  0.00    +0.098 C 
ATOM     65  SG  CYS A   7     -36.609  -1.432  24.161  0.00  0.00    -0.080 S 
ENDBRANCH  47  64
ENDBRANCH  45  47
ENDBRANCH  41  43
ENDBRANCH  38  41
ENDBRANCH  36  37
ENDBRANCH  33  36
ENDBRANCH   1  32
BRANCH   1  66
ATOM     66  CB  TYR A   4     -29.789 -10.840  27.416  0.00  0.00    +0.055 C 
BRANCH  66  67
ATOM     67  CG  TYR A   4     -29.284 -11.577  28.658  0.00  0.00    -0.020 A 
ATOM     68  CD2 TYR A   4     -28.388 -10.992  29.559  0.00  0.00    -0.001 A 
ATOM     69  CE2 TYR A   4     -27.930 -11.697  30.670  0.00  0.00    +0.036 A 
ATOM     70  CZ  TYR A   4     -28.339 -13.006  30.864  0.00  0.00    +0.134 A 
ATOM     71  CE1 TYR A   4     -29.226 -13.610  29.983  0.00  0.00    +0.036 A 
ATOM     72  CD1 TYR A   4     -29.666 -12.900  28.883  0.00  0.00    -0.001 A 
BRANCH  70  73
ATOM     73  OH  TYR A   4     -27.927 -13.709  31.945  0.00  0.00    -0.506 OA
ATOM     74  HH  TYR A   4     -27.467 -14.533  31.646  0.00  0.00    +0.292 HD
ENDBRANCH  70  73
ENDBRANCH  66  67
ENDBRANCH   1  66
TORSDOF 29
REMARK  Name = ../refined-set-2016/3hky/3hky_pocket.pdb
REMARK  262 active torsions:
REMARK  status: ('A' for Active; 'I' for Inactive)
REMARK    1  A    between atoms: _1  and  _3
REMARK    2  A    between atoms: _3  and  _4
REMARK    3  A    between atoms: _3  and  _6
REMARK    4  A    between atoms: _6  and  _7
REMARK    5  A    between atoms: _7  and  _8
REMARK    6  A    between atoms: _8  and  _9
REMARK    7  A    between atoms: _9  and  _10
REMARK    8  A    between atoms: _14  and  _16
REMARK    9  A    between atoms: _16  and  _17
REMARK   10  A    between atoms: _16  and  _19
REMARK   11  A    between atoms: _19  and  _20
REMARK   12  A    between atoms: _20  and  _21
REMARK   13  A    between atoms: _24  and  _26
REMARK   14  A    between atoms: _26  and  _27
REMARK   15  A    between atoms: _26  and  _29
REMARK   16  A    between atoms: _29  and  _30
REMARK   17  A    between atoms: _30  and  _31
REMARK   18  A    between atoms: _31  and  _32
REMARK   19  A    between atoms: _41  and  _43
REMARK   20  A    between atoms: _43  and  _44
REMARK   21  A    between atoms: _46  and  _48
REMARK   22  A    between atoms: _48  and  _49
REMARK   23  A    between atoms: _48  and  _51
REMARK   24  A    between atoms: _51  and  _52
REMARK   25  A    between atoms: _58  and  _60
REMARK   26  A    between atoms: _60  and  _61
REMARK   27  A    between atoms: _60  and  _63
REMARK   28  A    between atoms: _63  and  _64
REMARK   29  A    between atoms: _69  and  _70
REMARK   30  A    between atoms: _72  and  _74
REMARK   31  A    between atoms: _74  and  _75
REMARK   32  A    between atoms: _74  and  _77
REMARK   33  A    between atoms: _77  and  _78
REMARK   34  A    between atoms: _81  and  _82
REMARK   35  A    between atoms: _87  and  _89
REMARK   36  A    between atoms: _89  and  _90
REMARK   37  A    between atoms: _89  and  _92
REMARK   38  A    between atoms: _92  and  _93
REMARK   39  A    between atoms: _93  and  _94
REMARK   40  A    between atoms: _94  and  _95
REMARK   41  A    between atoms: _95  and  _96
REMARK   42  A    between atoms: _100  and  _102
REMARK   43  A    between atoms: _102  and  _103
REMARK   44  A    between atoms: _102  and  _105
REMARK   45  A    between atoms: _105  and  _106
REMARK   46  A    between atoms: _106  and  _107
REMARK   47  A    between atoms: _112  and  _114
REMARK   48  A    between atoms: _114  and  _115
REMARK   49  A    between atoms: _114  and  _117
REMARK   50  A    between atoms: _117  and  _118
REMARK   51  A    between atoms: _118  and  _119
REMARK   52  A    between atoms: _119  and  _120
REMARK   53  A    between atoms: _129  and  _131
REMARK   54  A    between atoms: _131  and  _132
REMARK   55  A    between atoms: _131  and  _134
REMARK   56  A    between atoms: _137  and  _139
REMARK   57  A    between atoms: _139  and  _140
REMARK   58  A    between atoms: _139  and  _142
REMARK   59  A    between atoms: _142  and  _143
REMARK   60  A    between atoms: _146  and  _148
REMARK   61  A    between atoms: _148  and  _149
REMARK   62  A    between atoms: _148  and  _151
REMARK   63  A    between atoms: _151  and  _152
REMARK   64  A    between atoms: _155  and  _157
REMARK   65  A    between atoms: _157  and  _158
REMARK   66  A    between atoms: _157  and  _160
REMARK   67  A    between atoms: _160  and  _161
REMARK   68  A    between atoms: _163  and  _165
REMARK   69  A    between atoms: _165  and  _166
REMARK   70  A    between atoms: _165  and  _168
REMARK   71  A    between atoms: _168  and  _169
REMARK   72  A    between atoms: _172  and  _174
REMARK   73  A    between atoms: _174  and  _175
REMARK   74  A    between atoms: _174  and  _177
REMARK   75  A    between atoms: _177  and  _178
REMARK   76  A    between atoms: _180  and  _182
REMARK   77  A    between atoms: _182  and  _183
REMARK   78  A    between atoms: _182  and  _185
REMARK   79  A    between atoms: _185  and  _186
REMARK   80  A    between atoms: _191  and  _193
REMARK   81  A    between atoms: _193  and  _194
REMARK   82  A    between atoms: _193  and  _196
REMARK   83  A    between atoms: _196  and  _197
REMARK   84  A    between atoms: _200  and  _202
REMARK   85  A    between atoms: _202  and  _203
REMARK   86  A    between atoms: _202  and  _205
REMARK   87  A    between atoms: _205  and  _206
REMARK   88  A    between atoms: _211  and  _213
REMARK   89  A    between atoms: _213  and  _214
REMARK   90  A    between atoms: _216  and  _218
REMARK   91  A    between atoms: _218  and  _219
REMARK   92  A    between atoms: _218  and  _221
REMARK   93  A    between atoms: _221  and  _222
REMARK   94  A    between atoms: _225  and  _227
REMARK   95  A    between atoms: _227  and  _228
REMARK   96  A    between atoms: _227  and  _230
REMARK   97  A    between atoms: _230  and  _231
REMARK   98  A    between atoms: _234  and  _236
REMARK   99  A    between atoms: _236  and  _237
REMARK  100  A    between atoms: _236  and  _239
REMARK  101  A    between atoms: _239  and  _240
REMARK  102  A    between atoms: _242  and  _244
REMARK  103  A    between atoms: _244  and  _245
REMARK  104  A    between atoms: _244  and  _247
REMARK  105  A    between atoms: _249  and  _251
REMARK  106  A    between atoms: _251  and  _252
REMARK  107  A    between atoms: _251  and  _254
REMARK  108  A    between atoms: _254  and  _255
REMARK  109  A    between atoms: _257  and  _259
REMARK  110  A    between atoms: _259  and  _260
REMARK  111  A    between atoms: _259  and  _262
REMARK  112  A    between atoms: _262  and  _263
REMARK  113  A    between atoms: _265  and  _267
REMARK  114  A    between atoms: _267  and  _268
REMARK  115  A    between atoms: _267  and  _270
REMARK  116  A    between atoms: _270  and  _271
REMARK  117  A    between atoms: _276  and  _278
REMARK  118  A    between atoms: _278  and  _279
REMARK  119  A    between atoms: _278  and  _281
REMARK  120  A    between atoms: _281  and  _282
REMARK  121  A    between atoms: _287  and  _288
REMARK  122  A    between atoms: _290  and  _292
REMARK  123  A    between atoms: _292  and  _293
REMARK  124  A    between atoms: _292  and  _295
REMARK  125  A    between atoms: _295  and  _296
REMARK  126  A    between atoms: _299  and  _301
REMARK  127  A    between atoms: _301  and  _302
REMARK  128  A    between atoms: _301  and  _304
REMARK  129  A    between atoms: _304  and  _305
REMARK  130  A    between atoms: _308  and  _310
REMARK  131  A    between atoms: _310  and  _311
REMARK  132  A    between atoms: _310  and  _313
REMARK  133  A    between atoms: _313  and  _314
REMARK  134  A    between atoms: _314  and  _315
REMARK  135  A    between atoms: _315  and  _316
REMARK  136  A    between atoms: _326  and  _327
REMARK  137  A    between atoms: _332  and  _334
REMARK  138  A    between atoms: _334  and  _335
REMARK  139  A    between atoms: _334  and  _337
REMARK  140  A    between atoms: _337  and  _338
REMARK  141  A    between atoms: _338  and  _339
REMARK  142  A    between atoms: _339  and  _340
REMARK  143  A    between atoms: _349  and  _351
REMARK  144  A    between atoms: _351  and  _352
REMARK  145  A    between atoms: _351  and  _354
REMARK  146  A    between atoms: _354  and  _355
REMARK  147  A    between atoms: _355  and  _356
REMARK  148  A    between atoms: _359  and  _361
REMARK  149  A    between atoms: _361  and  _362
REMARK  150  A    between atoms: _361  and  _364
REMARK  151  A    between atoms: _364  and  _365
REMARK  152  A    between atoms: _368  and  _370
REMARK  153  A    between atoms: _370  and  _371
REMARK  154  A    between atoms: _370  and  _373
REMARK  155  A    between atoms: _373  and  _374
REMARK  156  A    between atoms: _379  and  _381
REMARK  157  A    between atoms: _381  and  _382
REMARK  158  A    between atoms: _381  and  _384
REMARK  159  A    between atoms: _384  and  _385
REMARK  160  A    between atoms: _387  and  _389
REMARK  161  A    between atoms: _389  and  _390
REMARK  162  A    between atoms: _389  and  _392
REMARK  163  A    between atoms: _392  and  _393
REMARK  164  A    between atoms: _403  and  _405
REMARK  165  A    between atoms: _405  and  _406
REMARK  166  A    between atoms: _405  and  _408
REMARK  167  A    between atoms: _408  and  _409
REMARK  168  A    between atoms: _412  and  _414
REMARK  169  A    between atoms: _414  and  _415
REMARK  170  A    between atoms: _417  and  _419
REMARK  171  A    between atoms: _419  and  _420
REMARK  172  A    between atoms: _419  and  _422
REMARK  173  A    between atoms: _422  and  _423
REMARK  174  A    between atoms: _428  and  _430
REMARK  175  A    between atoms: _430  and  _431
REMARK  176  A    between atoms: _430  and  _433
REMARK  177  A    between atoms: _433  and  _434
REMARK  178  A    between atoms: _437  and  _439
REMARK  179  A    between atoms: _439  and  _440
REMARK  180  A    between atoms: _439  and  _442
REMARK  181  A    between atoms: _442  and  _443
REMARK  182  A    between atoms: _446  and  _448
REMARK  183  A    between atoms: _448  and  _449
REMARK  184  A    between atoms: _448  and  _451
REMARK  185  A    between atoms: _451  and  _452
REMARK  186  A    between atoms: _452  and  _453
REMARK  187  A    between atoms: _455  and  _457
REMARK  188  A    between atoms: _457  and  _458
REMARK  189  A    between atoms: _457  and  _460
REMARK  190  A    between atoms: _460  and  _461
REMARK  191  A    between atoms: _466  and  _467
REMARK  192  A    between atoms: _469  and  _471
REMARK  193  A    between atoms: _471  and  _472
REMARK  194  A    between atoms: _476  and  _477
REMARK  195  A    between atoms: _482  and  _484
REMARK  196  A    between atoms: _484  and  _485
REMARK  197  A    between atoms: _484  and  _487
REMARK  198  A    between atoms: _487  and  _488
REMARK  199  A    between atoms: _491  and  _493
REMARK  200  A    between atoms: _493  and  _494
REMARK  201  A    between atoms: _493  and  _496
REMARK  202  A    between atoms: _496  and  _497
REMARK  203  A    between atoms: _507  and  _509
REMARK  204  A    between atoms: _509  and  _510
REMARK  205  A    between atoms: _509  and  _512
REMARK  206  A    between atoms: _514  and  _516
REMARK  207  A    between atoms: _516  and  _517
REMARK  208  A    between atoms: _516  and  _519
REMARK  209  A    between atoms: _519  and  _520
REMARK  210  A    between atoms: _520  and  _521
REMARK  211  A    between atoms: _526  and  _528
REMARK  212  A    between atoms: _528  and  _529
REMARK  213  A    between atoms: _528  and  _531
REMARK  214  A    between atoms: _531  and  _532
REMARK  215  A    between atoms: _535  and  _537
REMARK  216  A    between atoms: _537  and  _538
REMARK  217  A    between atoms: _537  and  _540
REMARK  218  A    between atoms: _540  and  _541
REMARK  219  A    between atoms: _546  and  _547
REMARK  220  A    between atoms: _549  and  _551
REMARK  221  A    between atoms: _551  and  _552
REMARK  222  A    between atoms: _554  and  _556
REMARK  223  A    between atoms: _556  and  _557
REMARK  224  A    between atoms: _560  and  _562
REMARK  225  A    between atoms: _562  and  _563
REMARK  226  A    between atoms: _562  and  _565
REMARK  227  A    between atoms: _567  and  _569
REMARK  228  A    between atoms: _569  and  _570
REMARK  229  A    between atoms: _569  and  _572
REMARK  230  A    between atoms: _572  and  _573
REMARK  231  A    between atoms: _578  and  _579
REMARK  232  A    between atoms: _581  and  _583
REMARK  233  A    between atoms: _583  and  _584
REMARK  234  A    between atoms: _583  and  _586
REMARK  235  A    between atoms: _586  and  _587
REMARK  236  A    between atoms: _590  and  _592
REMARK  237  A    between atoms: _592  and  _593
REMARK  238  A    between atoms: _592  and  _595
REMARK  239  A    between atoms: _595  and  _596
REMARK  240  A    between atoms: _601  and  _603
REMARK  241  A    between atoms: _603  and  _604
REMARK  242  A    between atoms: _603  and  _606
REMARK  243  A    between atoms: _606  and  _607
REMARK  244  A    between atoms: _617  and  _619
REMARK  245  A    between atoms: _619  and  _620
REMARK  246  A    between atoms: _619  and  _622
REMARK  247  A    between atoms: _622  and  _623
REMARK  248  A    between atoms: _629  and  _631
REMARK  249  A    between atoms: _631  and  _632
REMARK  250  A    between atoms: _635  and  _637
REMARK  251  A    between atoms: _637  and  _638
REMARK  252  A    between atoms: _640  and  _642
REMARK  253  A    between atoms: _642  and  _643
REMARK  254  A    between atoms: _642  and  _645
REMARK  255  A    between atoms: _645  and  _646
REMARK  256  A    between atoms: _651  and  _652
REMARK  257  A    between atoms: _654  and  _656
REMARK  258  A    between atoms: _656  and  _657
REMARK  259  A    between atoms: _656  and  _659
REMARK  260  A    between atoms: _659  and  _660
REMARK  261  A    between atoms: _662  and  _664
REMARK  262  A    between atoms: _664  and  _665
REMARK                            x       y       z     vdW  Elec       q    Type
REMARK                         _______ _______ _______ _____ _____    ______ ____
ROOT
ATOM      1  C   LEU A   1     -33.693 -13.677  39.747  0.00  0.00    +0.238 C 
ATOM      2  N   HIS A   2     -34.029 -13.397  41.007  0.00  0.00    -0.298 N 
ATOM      3  H   HIS A   2     -35.021 -13.166  41.215  0.00  0.00    +0.150 HD
ATOM      4  O   LEU A   1     -32.577 -14.106  39.418  0.00  0.00    -0.274 OA
ENDROOT
BRANCH   1   5
ATOM      5  CA  LEU A   1     -34.735 -13.375  38.679  0.00  0.00    +0.145 C 
BRANCH   5   6
ATOM      6  N   LEU A   1     -36.128 -13.363  39.156  0.00  0.00    -0.238 NA
ATOM      7  H   LEU A   1     -36.576 -12.446  39.356  0.00  0.00    +0.142 HD
ENDBRANCH   5   6
BRANCH   5   8
ATOM      8  CB  LEU A   1     -34.370 -12.011  38.086  0.00  0.00    +0.026 C 
BRANCH   8   9
ATOM      9  CG  LEU A   1     -34.649 -11.789  36.597  0.00  0.00    +0.002 C 
ATOM     10  CD2 LEU A   1     -36.088 -12.154  36.312  0.00  0.00    +0.000 C 
ATOM     11  CD1 LEU A   1     -34.387 -10.345  36.226  0.00  0.00    +0.000 C 
ENDBRANCH   8   9
ENDBRANCH   5   8
ENDBRANCH   1   5
BRANCH   2  12
ATOM     12  CA  HIS A   2     -33.069 -13.399  42.109  0.00  0.00    +0.143 C 
BRANCH  12  13
ATOM     13  C   HIS A   2     -33.494 -14.206  43.334  0.00  0.00    +0.227 C 
ATOM     14  O   HIS A   2     -32.649 -14.579  44.142  0.00  0.00    -0.286 OA
ENDBRANCH  12  13
BRANCH  12  15
ATOM     15  CB  HIS A   2     -32.790 -11.958  42.542  0.00  0.00    +0.075 C 
BRANCH  15  16
ATOM     16  CG  HIS A   2     -32.182 -11.113  41.462  0.00  0.00    +0.082 A 
ATOM     17  ND1 HIS A   2     -30.866 -11.245  41.073  0.00  0.00    -0.227 NA
ATOM     18  CE1 HIS A   2     -30.603 -10.370  40.123  0.00  0.00    +0.199 A 
ATOM     19  NE2 HIS A   2     -31.691  -9.659  39.892  0.00  0.00    -0.221 NA
ATOM     20  CD2 HIS A   2     -32.700 -10.117  40.704  0.00  0.00    +0.115 A 
ENDBRANCH  15  16
ENDBRANCH  12  15
ENDBRANCH   2  12
TORSDOF 8
REMARK  Name = ../refined-set-2016/3hky/3hky_pocket.pdb
REMARK  262 active torsions:
REMARK  status: ('A' for Active; 'I' for Inactive)
REMARK    1  A    between atoms: _1  and  _3
REMARK    2  A    between atoms: _3  and  _4
REMARK    3  A    between atoms: _3  and  _6
REMARK    4  A    between atoms: _6  and  _7
REMARK    5  A    between atoms: _7  and  _8
REMARK    6  A    between atoms: _8  and  _9
REMARK    7  A    between atoms: _9  and  _10
REMARK    8  A    between atoms: _14  and  _16
REMARK    9  A    between atoms: _16  and  _17
REMARK   10  A    between atoms: _16  and  _19
REMARK   11  A    between atoms: _19  and  _20
REMARK   12  A    between atoms: _20  and  _21
REMARK   13  A    between atoms: _24  and  _26
REMARK   14  A    between atoms: _26  and  _27
REMARK   15  A    between atoms: _26  and  _29
REMARK   16  A    between atoms: _29  and  _30
REMARK   17  A    between atoms: _30  and  _31
REMARK   18  A    between atoms: _31  and  _32
REMARK   19  A    between atoms: _41  and  _43
REMARK   20  A    between atoms: _43  and  _44
REMARK   21  A    between atoms: _46  and  _48
REMARK   22  A    between atoms: _48  and  _49
REMARK   23  A    between atoms: _48  and  _51
REMARK   24  A    between atoms: _51  and  _52
REMARK   25  A    between atoms: _58  and  _60
REMARK   26  A    between atoms: _60  and  _61
REMARK   27  A    between atoms: _60  and  _63
REMARK   28  A    between atoms: _63  and  _64
REMARK   29  A    between atoms: _69  and  _70
REMARK   30  A    between atoms: _72  and  _74
REMARK   31  A    between atoms: _74  and  _75
REMARK   32  A    between atoms: _74  and  _77
REMARK   33  A    between atoms: _77  and  _78
REMARK   34  A    between atoms: _81  and  _82
REMARK   35  A    between atoms: _87  and  _89
REMARK   36  A    between atoms: _89  and  _90
REMARK   37  A    between atoms: _89  and  _92
REMARK   38  A    between atoms: _92  and  _93
REMARK   39  A    between atoms: _93  and  _94
REMARK   40  A    between atoms: _94  and  _95
REMARK   41  A    between atoms: _95  and  _96
REMARK   42  A    between atoms: _100  and  _102
REMARK   43  A    between atoms: _102  and  _103
REMARK   44  A    between atoms: _102  and  _105
REMARK   45  A    between atoms: _105  and  _106
REMARK   46  A    between atoms: _106  and  _107
REMARK   47  A    between atoms: _112  and  _114
REMARK   48  A    between atoms: _114  and  _115
REMARK   49  A    between atoms: _114  and  _117
REMARK   50  A    between atoms: _117  and  _118
REMARK   51  A    between atoms: _118  and  _119
REMARK   52  A    between atoms: _119  and  _120
REMARK   53  A    between atoms: _129  and  _131
REMARK   54  A    between atoms: _131  and  _132
REMARK   55  A    between atoms: _131  and  _134
REMARK   56  A    between atoms: _137  and  _139
REMARK   57  A    between atoms: _139  and  _140
REMARK   58  A    between atoms: _139  and  _142
REMARK   59  A    between atoms: _142  and  _143
REMARK   60  A    between atoms: _146  and  _148
REMARK   61  A    between atoms: _148  and  _149
REMARK   62  A    between atoms: _148  and  _151
REMARK   63  A    between atoms: _151  and  _152
REMARK   64  A    between atoms: _155  and  _157
REMARK   65  A    between atoms: _157  and  _158
REMARK   66  A    between atoms: _157  and  _160
REMARK   67  A    between atoms: _160  and  _161
REMARK   68  A    between atoms: _163  and  _165
REMARK   69  A    between atoms: _165  and  _166
REMARK   70  A    between atoms: _165  and  _168
REMARK   71  A    between atoms: _168  and  _169
REMARK   72  A    between atoms: _172  and  _174
REMARK   73  A    between atoms: _174  and  _175
REMARK   74  A    between atoms: _174  and  _177
REMARK   75  A    between atoms: _177  and  _178
REMARK   76  A    between atoms: _180  and  _182
REMARK   77  A    between atoms: _182  and  _183
REMARK   78  A    between atoms: _182  and  _185
REMARK   79  A    between atoms: _185  and  _186
REMARK   80  A    between atoms: _191  and  _193
REMARK   81  A    between atoms: _193  and  _194
REMARK   82  A    between atoms: _193  and  _196
REMARK   83  A    between atoms: _196  and  _197
REMARK   84  A    between atoms: _200  and  _202
REMARK   85  A    between atoms: _202  and  _203
REMARK   86  A    between atoms: _202  and  _205
REMARK   87  A    between atoms: _205  and  _206
REMARK   88  A    between atoms: _211  and  _213
REMARK   89  A    between atoms: _213  and  _214
REMARK   90  A    between atoms: _216  and  _218
REMARK   91  A    between atoms: _218  and  _219
REMARK   92  A    between atoms: _218  and  _221
REMARK   93  A    between atoms: _221  and  _222
REMARK   94  A    between atoms: _225  and  _227
REMARK   95  A    between atoms: _227  and  _228
REMARK   96  A    between atoms: _227  and  _230
REMARK   97  A    between atoms: _230  and  _231
REMARK   98  A    between atoms: _234  and  _236
REMARK   99  A    between atoms: _236  and  _237
REMARK  100  A    between atoms: _236  and  _239
REMARK  101  A    between atoms: _239  and  _240
REMARK  102  A    between atoms: _242  and  _244
REMARK  103  A    between atoms: _244  and  _245
REMARK  104  A    between atoms: _244  and  _247
REMARK  105  A    between atoms: _249  and  _251
REMARK  106  A    between atoms: _251  and  _252
REMARK  107  A    between atoms: _251  and  _254
REMARK  108  A    between atoms: _254  and  _255
REMARK  109  A    between atoms: _257  and  _259
REMARK  110  A    between atoms: _259  and  _260
REMARK  111  A    between atoms: _259  and  _262
REMARK  112  A    between atoms: _262  and  _263
REMARK  113  A    between atoms: _265  and  _267
REMARK  114  A    between atoms: _267  and  _268
REMARK  115  A    between atoms: _267  and  _270
REMARK  116  A    between atoms: _270  and  _271
REMARK  117  A    between atoms: _276  and  _278
REMARK  118  A    between atoms: _278  and  _279
REMARK  119  A    between atoms: _278  and  _281
REMARK  120  A    between atoms: _281  and  _282
REMARK  121  A    between atoms: _287  and  _288
REMARK  122  A    between atoms: _290  and  _292
REMARK  123  A    between atoms: _292  and  _293
REMARK  124  A    between atoms: _292  and  _295
REMARK  125  A    between atoms: _295  and  _296
REMARK  126  A    between atoms: _299  and  _301
REMARK  127  A    between atoms: _301  and  _302
REMARK  128  A    between atoms: _301  and  _304
REMARK  129  A    between atoms: _304  and  _305
REMARK  130  A    between atoms: _308  and  _310
REMARK  131  A    between atoms: _310  and  _311
REMARK  132  A    between atoms: _310  and  _313
REMARK  133  A    between atoms: _313  and  _314
REMARK  134  A    between atoms: _314  and  _315
REMARK  135  A    between atoms: _315  and  _316
REMARK  136  A    between atoms: _326  and  _327
REMARK  137  A    between atoms: _332  and  _334
REMARK  138  A    between atoms: _334  and  _335
REMARK  139  A    between atoms: _334  and  _337
REMARK  140  A    between atoms: _337  and  _338
REMARK  141  A    between atoms: _338  and  _339
REMARK  142  A    between atoms: _339  and  _340
REMARK  143  A    between atoms: _349  and  _351
REMARK  144  A    between atoms: _351  and  _352
REMARK  145  A    between atoms: _351  and  _354
REMARK  146  A    between atoms: _354  and  _355
REMARK  147  A    between atoms: _355  and  _356
REMARK  148  A    between atoms: _359  and  _361
REMARK  149  A    between atoms: _361  and  _362
REMARK  150  A    between atoms: _361  and  _364
REMARK  151  A    between atoms: _364  and  _365
REMARK  152  A    between atoms: _368  and  _370
REMARK  153  A    between atoms: _370  and  _371
REMARK  154  A    between atoms: _370  and  _373
REMARK  155  A    between atoms: _373  and  _374
REMARK  156  A    between atoms: _379  and  _381
REMARK  157  A    between atoms: _381  and  _382
REMARK  158  A    between atoms: _381  and  _384
REMARK  159  A    between atoms: _384  and  _385
REMARK  160  A    between atoms: _387  and  _389
REMARK  161  A    between atoms: _389  and  _390
REMARK  162  A    between atoms: _389  and  _392
REMARK  163  A    between atoms: _392  and  _393
REMARK  164  A    between atoms: _403  and  _405
REMARK  165  A    between atoms: _405  and  _406
REMARK  166  A    between atoms: _405  and  _408
REMARK  167  A    between atoms: _408  and  _409
REMARK  168  A    between atoms: _412  and  _414
REMARK  169  A    between atoms: _414  and  _415
REMARK  170  A    between atoms: _417  and  _419
REMARK  171  A    between atoms: _419  and  _420
REMARK  172  A    between atoms: _419  and  _422
REMARK  173  A    between atoms: _422  and  _423
REMARK  174  A    between atoms: _428  and  _430
REMARK  175  A    between atoms: _430  and  _431
REMARK  176  A    between atoms: _430  and  _433
REMARK  177  A    between atoms: _433  and  _434
REMARK  178  A    between atoms: _437  and  _439
REMARK  179  A    between atoms: _439  and  _440
REMARK  180  A    between atoms: _439  and  _442
REMARK  181  A    between atoms: _442  and  _443
REMARK  182  A    between atoms: _446  and  _448
REMARK  183  A    between atoms: _448  and  _449
REMARK  184  A    between atoms: _448  and  _451
REMARK  185  A    between atoms: _451  and  _452
REMARK  186  A    between atoms: _452  and  _453
REMARK  187  A    between atoms: _455  and  _457
REMARK  188  A    between atoms: _457  and  _458
REMARK  189  A    between atoms: _457  and  _460
REMARK  190  A    between atoms: _460  and  _461
REMARK  191  A    between atoms: _466  and  _467
REMARK  192  A    between atoms: _469  and  _471
REMARK  193  A    between atoms: _471  and  _472
REMARK  194  A    between atoms: _476  and  _477
REMARK  195  A    between atoms: _482  and  _484
REMARK  196  A    between atoms: _484  and  _485
REMARK  197  A    between atoms: _484  and  _487
REMARK  198  A    between atoms: _487  and  _488
REMARK  199  A    between atoms: _491  and  _493
REMARK  200  A    between atoms: _493  and  _494
REMARK  201  A    between atoms: _493  and  _496
REMARK  202  A    between atoms: _496  and  _497
REMARK  203  A    between atoms: _507  and  _509
REMARK  204  A    between atoms: _509  and  _510
REMARK  205  A    between atoms: _509  and  _512
REMARK  206  A    between atoms: _514  and  _516
REMARK  207  A    between atoms: _516  and  _517
REMARK  208  A    between atoms: _516  and  _519
REMARK  209  A    between atoms: _519  and  _520
REMARK  210  A    between atoms: _520  and  _521
REMARK  211  A    between atoms: _526  and  _528
REMARK  212  A    between atoms: _528  and  _529
REMARK  213  A    between atoms: _528  and  _531
REMARK  214  A    between atoms: _531  and  _532
REMARK  215  A    between atoms: _535  and  _537
REMARK  216  A    between atoms: _537  and  _538
REMARK  217  A    between atoms: _537  and  _540
REMARK  218  A    between atoms: _540  and  _541
REMARK  219  A    between atoms: _546  and  _547
REMARK  220  A    between atoms: _549  and  _551
REMARK  221  A    between atoms: _551  and  _552
REMARK  222  A    between atoms: _554  and  _556
REMARK  223  A    between atoms: _556  and  _557
REMARK  224  A    between atoms: _560  and  _562
REMARK  225  A    between atoms: _562  and  _563
REMARK  226  A    between atoms: _562  and  _565
REMARK  227  A    between atoms: _567  and  _569
REMARK  228  A    between atoms: _569  and  _570
REMARK  229  A    between atoms: _569  and  _572
REMARK  230  A    between atoms: _572  and  _573
REMARK  231  A    between atoms: _578  and  _579
REMARK  232  A    between atoms: _581  and  _583
REMARK  233  A    between atoms: _583  and  _584
REMARK  234  A    between atoms: _583  and  _586
REMARK  235  A    between atoms: _586  and  _587
REMARK  236  A    between atoms: _590  and  _592
REMARK  237  A    between atoms: _592  and  _593
REMARK  238  A    between atoms: _592  and  _595
REMARK  239  A    between atoms: _595  and  _596
REMARK  240  A    between atoms: _601  and  _603
REMARK  241  A    between atoms: _603  and  _604
REMARK  242  A    between atoms: _603  and  _606
REMARK  243  A    between atoms: _606  and  _607
REMARK  244  A    between atoms: _617  and  _619
REMARK  245  A    between atoms: _619  and  _620
REMARK  246  A    between atoms: _619  and  _622
REMARK  247  A    between atoms: _622  and  _623
REMARK  248  A    between atoms: _629  and  _631
REMARK  249  A    between atoms: _631  and  _632
REMARK  250  A    between atoms: _635  and  _637
REMARK  251  A    between atoms: _637  and  _638
REMARK  252  A    between atoms: _640  and  _642
REMARK  253  A    between atoms: _642  and  _643
REMARK  254  A    between atoms: _642  and  _645
REMARK  255  A    between atoms: _645  and  _646
REMARK  256  A    between atoms: _651  and  _652
REMARK  257  A    between atoms: _654  and  _656
REMARK  258  A    between atoms: _656  and  _657
REMARK  259  A    between atoms: _656  and  _659
REMARK  260  A    between atoms: _659  and  _660
REMARK  261  A    between atoms: _662  and  _664
REMARK  262  A    between atoms: _664  and  _665
REMARK                            x       y       z     vdW  Elec       q    Type
REMARK                         _______ _______ _______ _____ _____    ______ ____
ROOT
ATOM      1  CA  TRP A   1     -36.164 -13.117  28.814  0.00  0.00    +0.149 C 
ENDROOT
BRANCH   1   2
ATOM      2  C   TRP A   1     -34.732 -13.618  28.833  0.00  0.00    +0.239 C 
ATOM      3  N   PHE A   2     -34.568 -14.912  29.080  0.00  0.00    -0.298 N 
ATOM      4  H   PHE A   2     -35.409 -15.520  29.140  0.00  0.00    +0.150 HD
ATOM      5  O   TRP A   1     -33.796 -12.827  28.692  0.00  0.00    -0.274 OA
BRANCH   3   6
ATOM      6  CA  PHE A   2     -33.249 -15.515  29.271  0.00  0.00    +0.141 C 
BRANCH   6   7
ATOM      7  C   PHE A   2     -33.145 -16.737  28.376  0.00  0.00    +0.227 C 
ATOM      8  O   PHE A   2     -33.005 -17.872  28.825  0.00  0.00    -0.286 OA
ENDBRANCH   6   7
BRANCH   6   9
ATOM      9  CB  PHE A   2     -33.036 -15.836  30.748  0.00  0.00    +0.054 C 
BRANCH   9  10
ATOM     10  CG  PHE A   2     -33.205 -14.638  31.630  0.00  0.00    -0.020 A 
ATOM     11  CD2 PHE A   2     -34.281 -14.541  32.487  0.00  0.00    -0.004 A 
ATOM     12  CE2 PHE A   2     -34.456 -13.427  33.289  0.00  0.00    -0.000 A 
ATOM     13  CZ  PHE A   2     -33.574 -12.378  33.216  0.00  0.00    -0.000 A 
ATOM     14  CE1 PHE A   2     -32.468 -12.458  32.372  0.00  0.00    -0.000 A 
ATOM     15  CD1 PHE A   2     -32.298 -13.590  31.577  0.00  0.00    -0.004 A 
ENDBRANCH   9  10
ENDBRANCH   6   9
ENDBRANCH   3   6
ENDBRANCH   1   2
BRANCH   1  16
ATOM     16  N   TRP A   1     -37.151 -14.034  28.206  0.00  0.00    -0.238 NA
ATOM     17  H   TRP A   1     -37.798 -14.568  28.821  0.00  0.00    +0.142 HD
ENDBRANCH   1  16
BRANCH   1  18
ATOM     18  CB  TRP A   1     -36.549 -12.788  30.251  0.00  0.00    +0.054 C 
BRANCH  18  19
ATOM     19  CG  TRP A   1     -37.654 -11.787  30.379  0.00  0.00    -0.002 A 
ATOM     20  CD2 TRP A   1     -37.719 -10.688  31.306  0.00  0.00    +0.013 A 
ATOM     21  CE3 TRP A   1     -36.873 -10.213  32.304  0.00  0.00    +0.001 A 
ATOM     22  CZ3 TRP A   1     -37.256  -9.097  33.026  0.00  0.00    +0.000 A 
ATOM     23  CH2 TRP A   1     -38.497  -8.463  32.786  0.00  0.00    +0.001 A 
ATOM     24  CZ2 TRP A   1     -39.340  -8.911  31.818  0.00  0.00    +0.017 A 
ATOM     25  CE2 TRP A   1     -38.948 -10.032  31.089  0.00  0.00    +0.056 A 
ATOM     26  NE1 TRP A   1     -39.592 -10.701  30.083  0.00  0.00    -0.352 N 
ATOM     27  HE1 TRP A   1     -40.527 -10.457  29.698  0.00  0.00    +0.166 HD
ATOM     28  CD1 TRP A   1     -38.803 -11.749  29.662  0.00  0.00    +0.068 A 
ENDBRANCH  18  19
ENDBRANCH   1  18
TORSDOF 8
REMARK  Name = ../refined-set-2016/3hky/3hky_pocket.pdb
REMARK  262 active torsions:
REMARK  status: ('A' for Active; 'I' for Inactive)
REMARK    1  A    between atoms: _1  and  _3
REMARK    2  A    between atoms: _3  and  _4
REMARK    3  A    between atoms: _3  and  _6
REMARK    4  A    between atoms: _6  and  _7
REMARK    5  A    between atoms: _7  and  _8
REMARK    6  A    between atoms: _8  and  _9
REMARK    7  A    between atoms: _9  and  _10
REMARK    8  A    between atoms: _14  and  _16
REMARK    9  A    between atoms: _16  and  _17
REMARK   10  A    between atoms: _16  and  _19
REMARK   11  A    between atoms: _19  and  _20
REMARK   12  A    between atoms: _20  and  _21
REMARK   13  A    between atoms: _24  and  _26
REMARK   14  A    between atoms: _26  and  _27
REMARK   15  A    between atoms: _26  and  _29
REMARK   16  A    between atoms: _29  and  _30
REMARK   17  A    between atoms: _30  and  _31
REMARK   18  A    between atoms: _31  and  _32
REMARK   19  A    between atoms: _41  and  _43
REMARK   20  A    between atoms: _43  and  _44
REMARK   21  A    between atoms: _46  and  _48
REMARK   22  A    between atoms: _48  and  _49
REMARK   23  A    between atoms: _48  and  _51
REMARK   24  A    between atoms: _51  and  _52
REMARK   25  A    between atoms: _58  and  _60
REMARK   26  A    between atoms: _60  and  _61
REMARK   27  A    between atoms: _60  and  _63
REMARK   28  A    between atoms: _63  and  _64
REMARK   29  A    between atoms: _69  and  _70
REMARK   30  A    between atoms: _72  and  _74
REMARK   31  A    between atoms: _74  and  _75
REMARK   32  A    between atoms: _74  and  _77
REMARK   33  A    between atoms: _77  and  _78
REMARK   34  A    between atoms: _81  and  _82
REMARK   35  A    between atoms: _87  and  _89
REMARK   36  A    between atoms: _89  and  _90
REMARK   37  A    between atoms: _89  and  _92
REMARK   38  A    between atoms: _92  and  _93
REMARK   39  A    between atoms: _93  and  _94
REMARK   40  A    between atoms: _94  and  _95
REMARK   41  A    between atoms: _95  and  _96
REMARK   42  A    between atoms: _100  and  _102
REMARK   43  A    between atoms: _102  and  _103
REMARK   44  A    between atoms: _102  and  _105
REMARK   45  A    between atoms: _105  and  _106
REMARK   46  A    between atoms: _106  and  _107
REMARK   47  A    between atoms: _112  and  _114
REMARK   48  A    between atoms: _114  and  _115
REMARK   49  A    between atoms: _114  and  _117
REMARK   50  A    between atoms: _117  and  _118
REMARK   51  A    between atoms: _118  and  _119
REMARK   52  A    between atoms: _119  and  _120
REMARK   53  A    between atoms: _129  and  _131
REMARK   54  A    between atoms: _131  and  _132
REMARK   55  A    between atoms: _131  and  _134
REMARK   56  A    between atoms: _137  and  _139
REMARK   57  A    between atoms: _139  and  _140
REMARK   58  A    between atoms: _139  and  _142
REMARK   59  A    between atoms: _142  and  _143
REMARK   60  A    between atoms: _146  and  _148
REMARK   61  A    between atoms: _148  and  _149
REMARK   62  A    between atoms: _148  and  _151
REMARK   63  A    between atoms: _151  and  _152
REMARK   64  A    between atoms: _155  and  _157
REMARK   65  A    between atoms: _157  and  _158
REMARK   66  A    between atoms: _157  and  _160
REMARK   67  A    between atoms: _160  and  _161
REMARK   68  A    between atoms: _163  and  _165
REMARK   69  A    between atoms: _165  and  _166
REMARK   70  A    between atoms: _165  and  _168
REMARK   71  A    between atoms: _168  and  _169
REMARK   72  A    between atoms: _172  and  _174
REMARK   73  A    between atoms: _174  and  _175
REMARK   74  A    between atoms: _174  and  _177
REMARK   75  A    between atoms: _177  and  _178
REMARK   76  A    between atoms: _180  and  _182
REMARK   77  A    between atoms: _182  and  _183
REMARK   78  A    between atoms: _182  and  _185
REMARK   79  A    between atoms: _185  and  _186
REMARK   80  A    between atoms: _191  and  _193
REMARK   81  A    between atoms: _193  and  _194
REMARK   82  A    between atoms: _193  and  _196
REMARK   83  A    between atoms: _196  and  _197
REMARK   84  A    between atoms: _200  and  _202
REMARK   85  A    between atoms: _202  and  _203
REMARK   86  A    between atoms: _202  and  _205
REMARK   87  A    between atoms: _205  and  _206
REMARK   88  A    between atoms: _211  and  _213
REMARK   89  A    between atoms: _213  and  _214
REMARK   90  A    between atoms: _216  and  _218
REMARK   91  A    between atoms: _218  and  _219
REMARK   92  A    between atoms: _218  and  _221
REMARK   93  A    between atoms: _221  and  _222
REMARK   94  A    between atoms: _225  and  _227
REMARK   95  A    between atoms: _227  and  _228
REMARK   96  A    between atoms: _227  and  _230
REMARK   97  A    between atoms: _230  and  _231
REMARK   98  A    between atoms: _234  and  _236
REMARK   99  A    between atoms: _236  and  _237
REMARK  100  A    between atoms: _236  and  _239
REMARK  101  A    between atoms: _239  and  _240
REMARK  102  A    between atoms: _242  and  _244
REMARK  103  A    between atoms: _244  and  _245
REMARK  104  A    between atoms: _244  and  _247
REMARK  105  A    between atoms: _249  and  _251
REMARK  106  A    between atoms: _251  and  _252
REMARK  107  A    between atoms: _251  and  _254
REMARK  108  A    between atoms: _254  and  _255
REMARK  109  A    between atoms: _257  and  _259
REMARK  110  A    between atoms: _259  and  _260
REMARK  111  A    between atoms: _259  and  _262
REMARK  112  A    between atoms: _262  and  _263
REMARK  113  A    between atoms: _265  and  _267
REMARK  114  A    between atoms: _267  and  _268
REMARK  115  A    between atoms: _267  and  _270
REMARK  116  A    between atoms: _270  and  _271
REMARK  117  A    between atoms: _276  and  _278
REMARK  118  A    between atoms: _278  and  _279
REMARK  119  A    between atoms: _278  and  _281
REMARK  120  A    between atoms: _281  and  _282
REMARK  121  A    between atoms: _287  and  _288
REMARK  122  A    between atoms: _290  and  _292
REMARK  123  A    between atoms: _292  and  _293
REMARK  124  A    between atoms: _292  and  _295
REMARK  125  A    between atoms: _295  and  _296
REMARK  126  A    between atoms: _299  and  _301
REMARK  127  A    between atoms: _301  and  _302
REMARK  128  A    between atoms: _301  and  _304
REMARK  129  A    between atoms: _304  and  _305
REMARK  130  A    between atoms: _308  and  _310
REMARK  131  A    between atoms: _310  and  _311
REMARK  132  A    between atoms: _310  and  _313
REMARK  133  A    between atoms: _313  and  _314
REMARK  134  A    between atoms: _314  and  _315
REMARK  135  A    between atoms: _315  and  _316
REMARK  136  A    between atoms: _326  and  _327
REMARK  137  A    between atoms: _332  and  _334
REMARK  138  A    between atoms: _334  and  _335
REMARK  139  A    between atoms: _334  and  _337
REMARK  140  A    between atoms: _337  and  _338
REMARK  141  A    between atoms: _338  and  _339
REMARK  142  A    between atoms: _339  and  _340
REMARK  143  A    between atoms: _349  and  _351
REMARK  144  A    between atoms: _351  and  _352
REMARK  145  A    between atoms: _351  and  _354
REMARK  146  A    between atoms: _354  and  _355
REMARK  147  A    between atoms: _355  and  _356
REMARK  148  A    between atoms: _359  and  _361
REMARK  149  A    between atoms: _361  and  _362
REMARK  150  A    between atoms: _361  and  _364
REMARK  151  A    between atoms: _364  and  _365
REMARK  152  A    between atoms: _368  and  _370
REMARK  153  A    between atoms: _370  and  _371
REMARK  154  A    between atoms: _370  and  _373
REMARK  155  A    between atoms: _373  and  _374
REMARK  156  A    between atoms: _379  and  _381
REMARK  157  A    between atoms: _381  and  _382
REMARK  158  A    between atoms: _381  and  _384
REMARK  159  A    between atoms: _384  and  _385
REMARK  160  A    between atoms: _387  and  _389
REMARK  161  A    between atoms: _389  and  _390
REMARK  162  A    between atoms: _389  and  _392
REMARK  163  A    between atoms: _392  and  _393
REMARK  164  A    between atoms: _403  and  _405
REMARK  165  A    between atoms: _405  and  _406
REMARK  166  A    between atoms: _405  and  _408
REMARK  167  A    between atoms: _408  and  _409
REMARK  168  A    between atoms: _412  and  _414
REMARK  169  A    between atoms: _414  and  _415
REMARK  170  A    between atoms: _417  and  _419
REMARK  171  A    between atoms: _419  and  _420
REMARK  172  A    between atoms: _419  and  _422
REMARK  173  A    between atoms: _422  and  _423
REMARK  174  A    between atoms: _428  and  _430
REMARK  175  A    between atoms: _430  and  _431
REMARK  176  A    between atoms: _430  and  _433
REMARK  177  A    between atoms: _433  and  _434
REMARK  178  A    between atoms: _437  and  _439
REMARK  179  A    between atoms: _439  and  _440
REMARK  180  A    between atoms: _439  and  _442
REMARK  181  A    between atoms: _442  and  _443
REMARK  182  A    between atoms: _446  and  _448
REMARK  183  A    between atoms: _448  and  _449
REMARK  184  A    between atoms: _448  and  _451
REMARK  185  A    between atoms: _451  and  _452
REMARK  186  A    between atoms: _452  and  _453
REMARK  187  A    between atoms: _455  and  _457
REMARK  188  A    between atoms: _457  and  _458
REMARK  189  A    between atoms: _457  and  _460
REMARK  190  A    between atoms: _460  and  _461
REMARK  191  A    between atoms: _466  and  _467
REMARK  192  A    between atoms: _469  and  _471
REMARK  193  A    between atoms: _471  and  _472
REMARK  194  A    between atoms: _476  and  _477
REMARK  195  A    between atoms: _482  and  _484
REMARK  196  A    between atoms: _484  and  _485
REMARK  197  A    between atoms: _484  and  _487
REMARK  198  A    between atoms: _487  and  _488
REMARK  199  A    between atoms: _491  and  _493
REMARK  200  A    between atoms: _493  and  _494
REMARK  201  A    between atoms: _493  and  _496
REMARK  202  A    between atoms: _496  and  _497
REMARK  203  A    between atoms: _507  and  _509
REMARK  204  A    between atoms: _509  and  _510
REMARK  205  A    between atoms: _509  and  _512
REMARK  206  A    between atoms: _514  and  _516
REMARK  207  A    between atoms: _516  and  _517
REMARK  208  A    between atoms: _516  and  _519
REMARK  209  A    between atoms: _519  and  _520
REMARK  210  A    between atoms: _520  and  _521
REMARK  211  A    between atoms: _526  and  _528
REMARK  212  A    between atoms: _528  and  _529
REMARK  213  A    between atoms: _528  and  _531
REMARK  214  A    between atoms: _531  and  _532
REMARK  215  A    between atoms: _535  and  _537
REMARK  216  A    between atoms: _537  and  _538
REMARK  217  A    between atoms: _537  and  _540
REMARK  218  A    between atoms: _540  and  _541
REMARK  219  A    between atoms: _546  and  _547
REMARK  220  A    between atoms: _549  and  _551
REMARK  221  A    between atoms: _551  and  _552
REMARK  222  A    between atoms: _554  and  _556
REMARK  223  A    between atoms: _556  and  _557
REMARK  224  A    between atoms: _560  and  _562
REMARK  225  A    between atoms: _562  and  _563
REMARK  226  A    between atoms: _562  and  _565
REMARK  227  A    between atoms: _567  and  _569
REMARK  228  A    between atoms: _569  and  _570
REMARK  229  A    between atoms: _569  and  _572
REMARK  230  A    between atoms: _572  and  _573
REMARK  231  A    between atoms: _578  and  _579
REMARK  232  A    between atoms: _581  and  _583
REMARK  233  A    between atoms: _583  and  _584
REMARK  234  A    between atoms: _583  and  _586
REMARK  235  A    between atoms: _586  and  _587
REMARK  236  A    between atoms: _590  and  _592
REMARK  237  A    between atoms: _592  and  _593
REMARK  238  A    between atoms: _592  and  _595
REMARK  239  A    between atoms: _595  and  _596
REMARK  240  A    between atoms: _601  and  _603
REMARK  241  A    between atoms: _603  and  _604
REMARK  242  A    between atoms: _603  and  _606
REMARK  243  A    between atoms: _606  and  _607
REMARK  244  A    between atoms: _617  and  _619
REMARK  245  A    between atoms: _619  and  _620
REMARK  246  A    between atoms: _619  and  _622
REMARK  247  A    between atoms: _622  and  _623
REMARK  248  A    between atoms: _629  and  _631
REMARK  249  A    between atoms: _631  and  _632
REMARK  250  A    between atoms: _635  and  _637
REMARK  251  A    between atoms: _637  and  _638
REMARK  252  A    between atoms: _640  and  _642
REMARK  253  A    between atoms: _642  and  _643
REMARK  254  A    between atoms: _642  and  _645
REMARK  255  A    between atoms: _645  and  _646
REMARK  256  A    between atoms: _651  and  _652
REMARK  257  A    between atoms: _654  and  _656
REMARK  258  A    between atoms: _656  and  _657
REMARK  259  A    between atoms: _656  and  _659
REMARK  260  A    between atoms: _659  and  _660
REMARK  261  A    between atoms: _662  and  _664
REMARK  262  A    between atoms: _664  and  _665
REMARK                            x       y       z     vdW  Elec       q    Type
REMARK                         _______ _______ _______ _____ _____    ______ ____
ROOT
ATOM      1  CA  TYR A   3     -29.484  -9.975  21.134  0.00  0.00    +0.153 C 
ENDROOT
BRANCH   1   3
ATOM      2  C   GLY A   2     -28.782 -12.008  22.271  0.00  0.00    +0.243 C 
ATOM      3  N   TYR A   3     -29.063 -10.705  22.327  0.00  0.00    -0.297 N 
ATOM      4  H   TYR A   3     -28.981 -10.202  23.233  0.00  0.00    +0.150 HD
ATOM      5  O   GLY A   2     -28.767 -12.654  21.205  0.00  0.00    -0.273 OA
BRANCH   2   6
ATOM      6  CA  GLY A   2     -28.463 -12.685  23.585  0.00  0.00    +0.176 C 
BRANCH   6   9
ATOM      7  C   ALA A   1     -30.153 -14.326  24.060  0.00  0.00    +0.238 C 
ATOM      8  O   ALA A   1     -30.849 -13.482  24.594  0.00  0.00    -0.274 OA
ATOM      9  N   GLY A   2     -28.943 -14.051  23.608  0.00  0.00    -0.296 N 
ATOM     10  H   GLY A   2     -28.331 -14.820  23.267  0.00  0.00    +0.150 HD
BRANCH   7  11
ATOM     11  CA  ALA A   1     -30.607 -15.761  23.939  0.00  0.00    +0.145 C 
ATOM     12  CB  ALA A   1     -30.945 -16.087  22.494  0.00  0.00    +0.028 C 
BRANCH  11  13
ATOM     13  N   ALA A   1     -31.757 -16.051  24.789  0.00  0.00    -0.238 NA
ATOM     14  H   ALA A   1     -32.400 -15.283  25.068  0.00  0.00    +0.142 HD
ENDBRANCH  11  13
ENDBRANCH   7  11
ENDBRANCH   6   9
ENDBRANCH   2   6
ENDBRANCH   1   3
BRANCH   1  15
ATOM     15  C   TYR A   3     -28.833  -8.611  21.010  0.00  0.00    +0.241 C 
ATOM     16  N   SER A   4     -27.721  -8.384  21.708  0.00  0.00    -0.295 N 
ATOM     17  H   SER A   4     -27.314  -9.134  22.303  0.00  0.00    +0.150 HD
ATOM     18  O   TYR A   3     -29.329  -7.757  20.287  0.00  0.00    -0.273 OA
BRANCH  16  19
ATOM     19  CA  SER A   4     -27.083  -7.088  21.632  0.00  0.00    +0.178 C 
BRANCH  19  20
ATOM     20  C   SER A   4     -26.685  -6.768  20.178  0.00  0.00    +0.243 C 
ATOM     21  N   GLY A   5     -27.125  -5.599  19.712  0.00  0.00    -0.296 N 
ATOM     22  H   GLY A   5     -27.678  -4.996  20.353  0.00  0.00    +0.150 HD
ATOM     23  O   SER A   4     -25.993  -7.549  19.518  0.00  0.00    -0.273 OA
BRANCH  21  24
ATOM     24  CA  GLY A   5     -26.879  -5.115  18.362  0.00  0.00    +0.163 C 
BRANCH  24  25
ATOM     25  C   GLY A   5     -27.892  -5.558  17.345  0.00  0.00    +0.229 C 
ATOM     26  O   GLY A   5     -27.857  -5.110  16.205  0.00  0.00    -0.286 OA
ENDBRANCH  24  25
ENDBRANCH  21  24
ENDBRANCH  19  20
BRANCH  19  27
ATOM     27  CB  SER A   4     -25.871  -7.047  22.565  0.00  0.00    +0.166 C 
BRANCH  27  28
ATOM     28  OG  SER A   4     -25.302  -5.743  22.646  0.00  0.00    -0.380 OA
ATOM     29  H   SER A   4     -25.980  -5.109  22.991  0.00  0.00    +0.211 HD
ENDBRANCH  27  28
ENDBRANCH  19  27
ENDBRANCH  16  19
ENDBRANCH   1  15
BRANCH   1  30
ATOM     30  CB  TYR A   3     -31.003  -9.787  21.161  0.00  0.00    +0.055 C 
BRANCH  30  31
ATOM     31  CG  TYR A   3     -31.809 -11.054  21.128  0.00  0.00    -0.020 A 
ATOM     32  CD2 TYR A   3     -32.473 -11.507  22.264  0.00  0.00    -0.001 A 
ATOM     33  CE2 TYR A   3     -33.212 -12.643  22.249  0.00  0.00    +0.036 A 
ATOM     34  CZ  TYR A   3     -33.361 -13.358  21.087  0.00  0.00    +0.134 A 
ATOM     35  CE1 TYR A   3     -32.755 -12.929  19.937  0.00  0.00    +0.036 A 
ATOM     36  CD1 TYR A   3     -31.966 -11.777  19.958  0.00  0.00    -0.001 A 
BRANCH  34  37
ATOM     37  OH  TYR A   3     -34.157 -14.493  21.107  0.00  0.00    -0.506 OA
ATOM     38  HH  TYR A   3     -34.170 -14.901  20.205  0.00  0.00    +0.292 HD
ENDBRANCH  34  37
ENDBRANCH  30  31
ENDBRANCH   1  30
TORSDOF 15
REMARK  Name = ../refined-set-2016/3hky/3hky_pocket.pdb
REMARK  262 active torsions:
REMARK  status: ('A' for Active; 'I' for Inactive)
REMARK    1  A    between atoms: _1  and  _3
REMARK    2  A    between atoms: _3  and  _4
REMARK    3  A    between atoms: _3  and  _6
REMARK    4  A    between atoms: _6  and  _7
REMARK    5  A    between atoms: _7  and  _8
REMARK    6  A    between atoms: _8  and  _9
REMARK    7  A    between atoms: _9  and  _10
REMARK    8  A    between atoms: _14  and  _16
REMARK    9  A    between atoms: _16  and  _17
REMARK   10  A    between atoms: _16  and  _19
REMARK   11  A    between atoms: _19  and  _20
REMARK   12  A    between atoms: _20  and  _21
REMARK   13  A    between atoms: _24  and  _26
REMARK   14  A    between atoms: _26  and  _27
REMARK   15  A    between atoms: _26  and  _29
REMARK   16  A    between atoms: _29  and  _30
REMARK   17  A    between atoms: _30  and  _31
REMARK   18  A    between atoms: _31  and  _32
REMARK   19  A    between atoms: _41  and  _43
REMARK   20  A    between atoms: _43  and  _44
REMARK   21  A    between atoms: _46  and  _48
REMARK   22  A    between atoms: _48  and  _49
REMARK   23  A    between atoms: _48  and  _51
REMARK   24  A    between atoms: _51  and  _52
REMARK   25  A    between atoms: _58  and  _60
REMARK   26  A    between atoms: _60  and  _61
REMARK   27  A    between atoms: _60  and  _63
REMARK   28  A    between atoms: _63  and  _64
REMARK   29  A    between atoms: _69  and  _70
REMARK   30  A    between atoms: _72  and  _74
REMARK   31  A    between atoms: _74  and  _75
REMARK   32  A    between atoms: _74  and  _77
REMARK   33  A    between atoms: _77  and  _78
REMARK   34  A    between atoms: _81  and  _82
REMARK   35  A    between atoms: _87  and  _89
REMARK   36  A    between atoms: _89  and  _90
REMARK   37  A    between atoms: _89  and  _92
REMARK   38  A    between atoms: _92  and  _93
REMARK   39  A    between atoms: _93  and  _94
REMARK   40  A    between atoms: _94  and  _95
REMARK   41  A    between atoms: _95  and  _96
REMARK   42  A    between atoms: _100  and  _102
REMARK   43  A    between atoms: _102  and  _103
REMARK   44  A    between atoms: _102  and  _105
REMARK   45  A    between atoms: _105  and  _106
REMARK   46  A    between atoms: _106  and  _107
REMARK   47  A    between atoms: _112  and  _114
REMARK   48  A    between atoms: _114  and  _115
REMARK   49  A    between atoms: _114  and  _117
REMARK   50  A    between atoms: _117  and  _118
REMARK   51  A    between atoms: _118  and  _119
REMARK   52  A    between atoms: _119  and  _120
REMARK   53  A    between atoms: _129  and  _131
REMARK   54  A    between atoms: _131  and  _132
REMARK   55  A    between atoms: _131  and  _134
REMARK   56  A    between atoms: _137  and  _139
REMARK   57  A    between atoms: _139  and  _140
REMARK   58  A    between atoms: _139  and  _142
REMARK   59  A    between atoms: _142  and  _143
REMARK   60  A    between atoms: _146  and  _148
REMARK   61  A    between atoms: _148  and  _149
REMARK   62  A    between atoms: _148  and  _151
REMARK   63  A    between atoms: _151  and  _152
REMARK   64  A    between atoms: _155  and  _157
REMARK   65  A    between atoms: _157  and  _158
REMARK   66  A    between atoms: _157  and  _160
REMARK   67  A    between atoms: _160  and  _161
REMARK   68  A    between atoms: _163  and  _165
REMARK   69  A    between atoms: _165  and  _166
REMARK   70  A    between atoms: _165  and  _168
REMARK   71  A    between atoms: _168  and  _169
REMARK   72  A    between atoms: _172  and  _174
REMARK   73  A    between atoms: _174  and  _175
REMARK   74  A    between atoms: _174  and  _177
REMARK   75  A    between atoms: _177  and  _178
REMARK   76  A    between atoms: _180  and  _182
REMARK   77  A    between atoms: _182  and  _183
REMARK   78  A    between atoms: _182  and  _185
REMARK   79  A    between atoms: _185  and  _186
REMARK   80  A    between atoms: _191  and  _193
REMARK   81  A    between atoms: _193  and  _194
REMARK   82  A    between atoms: _193  and  _196
REMARK   83  A    between atoms: _196  and  _197
REMARK   84  A    between atoms: _200  and  _202
REMARK   85  A    between atoms: _202  and  _203
REMARK   86  A    between atoms: _202  and  _205
REMARK   87  A    between atoms: _205  and  _206
REMARK   88  A    between atoms: _211  and  _213
REMARK   89  A    between atoms: _213  and  _214
REMARK   90  A    between atoms: _216  and  _218
REMARK   91  A    between atoms: _218  and  _219
REMARK   92  A    between atoms: _218  and  _221
REMARK   93  A    between atoms: _221  and  _222
REMARK   94  A    between atoms: _225  and  _227
REMARK   95  A    between atoms: _227  and  _228
REMARK   96  A    between atoms: _227  and  _230
REMARK   97  A    between atoms: _230  and  _231
REMARK   98  A    between atoms: _234  and  _236
REMARK   99  A    between atoms: _236  and  _237
REMARK  100  A    between atoms: _236  and  _239
REMARK  101  A    between atoms: _239  and  _240
REMARK  102  A    between atoms: _242  and  _244
REMARK  103  A    between atoms: _244  and  _245
REMARK  104  A    between atoms: _244  and  _247
REMARK  105  A    between atoms: _249  and  _251
REMARK  106  A    between atoms: _251  and  _252
REMARK  107  A    between atoms: _251  and  _254
REMARK  108  A    between atoms: _254  and  _255
REMARK  109  A    between atoms: _257  and  _259
REMARK  110  A    between atoms: _259  and  _260
REMARK  111  A    between atoms: _259  and  _262
REMARK  112  A    between atoms: _262  and  _263
REMARK  113  A    between atoms: _265  and  _267
REMARK  114  A    between atoms: _267  and  _268
REMARK  115  A    between atoms: _267  and  _270
REMARK  116  A    between atoms: _270  and  _271
REMARK  117  A    between atoms: _276  and  _278
REMARK  118  A    between atoms: _278  and  _279
REMARK  119  A    between atoms: _278  and  _281
REMARK  120  A    between atoms: _281  and  _282
REMARK  121  A    between atoms: _287  and  _288
REMARK  122  A    between atoms: _290  and  _292
REMARK  123  A    between atoms: _292  and  _293
REMARK  124  A    between atoms: _292  and  _295
REMARK  125  A    between atoms: _295  and  _296
REMARK  126  A    between atoms: _299  and  _301
REMARK  127  A    between atoms: _301  and  _302
REMARK  128  A    between atoms: _301  and  _304
REMARK  129  A    between atoms: _304  and  _305
REMARK  130  A    between atoms: _308  and  _310
REMARK  131  A    between atoms: _310  and  _311
REMARK  132  A    between atoms: _310  and  _313
REMARK  133  A    between atoms: _313  and  _314
REMARK  134  A    between atoms: _314  and  _315
REMARK  135  A    between atoms: _315  and  _316
REMARK  136  A    between atoms: _326  and  _327
REMARK  137  A    between atoms: _332  and  _334
REMARK  138  A    between atoms: _334  and  _335
REMARK  139  A    between atoms: _334  and  _337
REMARK  140  A    between atoms: _337  and  _338
REMARK  141  A    between atoms: _338  and  _339
REMARK  142  A    between atoms: _339  and  _340
REMARK  143  A    between atoms: _349  and  _351
REMARK  144  A    between atoms: _351  and  _352
REMARK  145  A    between atoms: _351  and  _354
REMARK  146  A    between atoms: _354  and  _355
REMARK  147  A    between atoms: _355  and  _356
REMARK  148  A    between atoms: _359  and  _361
REMARK  149  A    between atoms: _361  and  _362
REMARK  150  A    between atoms: _361  and  _364
REMARK  151  A    between atoms: _364  and  _365
REMARK  152  A    between atoms: _368  and  _370
REMARK  153  A    between atoms: _370  and  _371
REMARK  154  A    between atoms: _370  and  _373
REMARK  155  A    between atoms: _373  and  _374
REMARK  156  A    between atoms: _379  and  _381
REMARK  157  A    between atoms: _381  and  _382
REMARK  158  A    between atoms: _381  and  _384
REMARK  159  A    between atoms: _384  and  _385
REMARK  160  A    between atoms: _387  and  _389
REMARK  161  A    between atoms: _389  and  _390
REMARK  162  A    between atoms: _389  and  _392
REMARK  163  A    between atoms: _392  and  _393
REMARK  164  A    between atoms: _403  and  _405
REMARK  165  A    between atoms: _405  and  _406
REMARK  166  A    between atoms: _405  and  _408
REMARK  167  A    between atoms: _408  and  _409
REMARK  168  A    between atoms: _412  and  _414
REMARK  169  A    between atoms: _414  and  _415
REMARK  170  A    between atoms: _417  and  _419
REMARK  171  A    between atoms: _419  and  _420
REMARK  172  A    between atoms: _419  and  _422
REMARK  173  A    between atoms: _422  and  _423
REMARK  174  A    between atoms: _428  and  _430
REMARK  175  A    between atoms: _430  and  _431
REMARK  176  A    between atoms: _430  and  _433
REMARK  177  A    between atoms: _433  and  _434
REMARK  178  A    between atoms: _437  and  _439
REMARK  179  A    between atoms: _439  and  _440
REMARK  180  A    between atoms: _439  and  _442
REMARK  181  A    between atoms: _442  and  _443
REMARK  182  A    between atoms: _446  and  _448
REMARK  183  A    between atoms: _448  and  _449
REMARK  184  A    between atoms: _448  and  _451
REMARK  185  A    between atoms: _451  and  _452
REMARK  186  A    between atoms: _452  and  _453
REMARK  187  A    between atoms: _455  and  _457
REMARK  188  A    between atoms: _457  and  _458
REMARK  189  A    between atoms: _457  and  _460
REMARK  190  A    between atoms: _460  and  _461
REMARK  191  A    between atoms: _466  and  _467
REMARK  192  A    between atoms: _469  and  _471
REMARK  193  A    between atoms: _471  and  _472
REMARK  194  A    between atoms: _476  and  _477
REMARK  195  A    between atoms: _482  and  _484
REMARK  196  A    between atoms: _484  and  _485
REMARK  197  A    between atoms: _484  and  _487
REMARK  198  A    between atoms: _487  and  _488
REMARK  199  A    between atoms: _491  and  _493
REMARK  200  A    between atoms: _493  and  _494
REMARK  201  A    between atoms: _493  and  _496
REMARK  202  A    between atoms: _496  and  _497
REMARK  203  A    between atoms: _507  and  _509
REMARK  204  A    between atoms: _509  and  _510
REMARK  205  A    between atoms: _509  and  _512
REMARK  206  A    between atoms: _514  and  _516
REMARK  207  A    between atoms: _516  and  _517
REMARK  208  A    between atoms: _516  and  _519
REMARK  209  A    between atoms: _519  and  _520
REMARK  210  A    between atoms: _520  and  _521
REMARK  211  A    between atoms: _526  and  _528
REMARK  212  A    between atoms: _528  and  _529
REMARK  213  A    between atoms: _528  and  _531
REMARK  214  A    between atoms: _531  and  _532
REMARK  215  A    between atoms: _535  and  _537
REMARK  216  A    between atoms: _537  and  _538
REMARK  217  A    between atoms: _537  and  _540
REMARK  218  A    between atoms: _540  and  _541
REMARK  219  A    between atoms: _546  and  _547
REMARK  220  A    between atoms: _549  and  _551
REMARK  221  A    between atoms: _551  and  _552
REMARK  222  A    between atoms: _554  and  _556
REMARK  223  A    between atoms: _556  and  _557
REMARK  224  A    between atoms: _560  and  _562
REMARK  225  A    between atoms: _562  and  _563
REMARK  226  A    between atoms: _562  and  _565
REMARK  227  A    between atoms: _567  and  _569
REMARK  228  A    between atoms: _569  and  _570
REMARK  229  A    between atoms: _569  and  _572
REMARK  230  A    between atoms: _572  and  _573
REMARK  231  A    between atoms: _578  and  _579
REMARK  232  A    between atoms: _581  and  _583
REMARK  233  A    between atoms: _583  and  _584
REMARK  234  A    between atoms: _583  and  _586
REMARK  235  A    between atoms: _586  and  _587
REMARK  236  A    between atoms: _590  and  _592
REMARK  237  A    between atoms: _592  and  _593
REMARK  238  A    between atoms: _592  and  _595
REMARK  239  A    between atoms: _595  and  _596
REMARK  240  A    between atoms: _601  and  _603
REMARK  241  A    between atoms: _603  and  _604
REMARK  242  A    between atoms: _603  and  _606
REMARK  243  A    between atoms: _606  and  _607
REMARK  244  A    between atoms: _617  and  _619
REMARK  245  A    between atoms: _619  and  _620
REMARK  246  A    between atoms: _619  and  _622
REMARK  247  A    between atoms: _622  and  _623
REMARK  248  A    between atoms: _629  and  _631
REMARK  249  A    between atoms: _631  and  _632
REMARK  250  A    between atoms: _635  and  _637
REMARK  251  A    between atoms: _637  and  _638
REMARK  252  A    between atoms: _640  and  _642
REMARK  253  A    between atoms: _642  and  _643
REMARK  254  A    between atoms: _642  and  _645
REMARK  255  A    between atoms: _645  and  _646
REMARK  256  A    between atoms: _651  and  _652
REMARK  257  A    between atoms: _654  and  _656
REMARK  258  A    between atoms: _656  and  _657
REMARK  259  A    between atoms: _656  and  _659
REMARK  260  A    between atoms: _659  and  _660
REMARK  261  A    between atoms: _662  and  _664
REMARK  262  A    between atoms: _664  and  _665
REMARK                            x       y       z     vdW  Elec       q    Type
REMARK                         _______ _______ _______ _____ _____    ______ ____
ROOT
ATOM      1  O   HOH     1     -23.271  -4.916  33.720  0.00  0.00    +0.000 OA
ENDROOT
TORSDOF 0
REMARK  Name = ../refined-set-2016/3hky/3hky_pocket.pdb
REMARK  262 active torsions:
REMARK  status: ('A' for Active; 'I' for Inactive)
REMARK    1  A    between atoms: _1  and  _3
REMARK    2  A    between atoms: _3  and  _4
REMARK    3  A    between atoms: _3  and  _6
REMARK    4  A    between atoms: _6  and  _7
REMARK    5  A    between atoms: _7  and  _8
REMARK    6  A    between atoms: _8  and  _9
REMARK    7  A    between atoms: _9  and  _10
REMARK    8  A    between atoms: _14  and  _16
REMARK    9  A    between atoms: _16  and  _17
REMARK   10  A    between atoms: _16  and  _19
REMARK   11  A    between atoms: _19  and  _20
REMARK   12  A    between atoms: _20  and  _21
REMARK   13  A    between atoms: _24  and  _26
REMARK   14  A    between atoms: _26  and  _27
REMARK   15  A    between atoms: _26  and  _29
REMARK   16  A    between atoms: _29  and  _30
REMARK   17  A    between atoms: _30  and  _31
REMARK   18  A    between atoms: _31  and  _32
REMARK   19  A    between atoms: _41  and  _43
REMARK   20  A    between atoms: _43  and  _44
REMARK   21  A    between atoms: _46  and  _48
REMARK   22  A    between atoms: _48  and  _49
REMARK   23  A    between atoms: _48  and  _51
REMARK   24  A    between atoms: _51  and  _52
REMARK   25  A    between atoms: _58  and  _60
REMARK   26  A    between atoms: _60  and  _61
REMARK   27  A    between atoms: _60  and  _63
REMARK   28  A    between atoms: _63  and  _64
REMARK   29  A    between atoms: _69  and  _70
REMARK   30  A    between atoms: _72  and  _74
REMARK   31  A    between atoms: _74  and  _75
REMARK   32  A    between atoms: _74  and  _77
REMARK   33  A    between atoms: _77  and  _78
REMARK   34  A    between atoms: _81  and  _82
REMARK   35  A    between atoms: _87  and  _89
REMARK   36  A    between atoms: _89  and  _90
REMARK   37  A    between atoms: _89  and  _92
REMARK   38  A    between atoms: _92  and  _93
REMARK   39  A    between atoms: _93  and  _94
REMARK   40  A    between atoms: _94  and  _95
REMARK   41  A    between atoms: _95  and  _96
REMARK   42  A    between atoms: _100  and  _102
REMARK   43  A    between atoms: _102  and  _103
REMARK   44  A    between atoms: _102  and  _105
REMARK   45  A    between atoms: _105  and  _106
REMARK   46  A    between atoms: _106  and  _107
REMARK   47  A    between atoms: _112  and  _114
REMARK   48  A    between atoms: _114  and  _115
REMARK   49  A    between atoms: _114  and  _117
REMARK   50  A    between atoms: _117  and  _118
REMARK   51  A    between atoms: _118  and  _119
REMARK   52  A    between atoms: _119  and  _120
REMARK   53  A    between atoms: _129  and  _131
REMARK   54  A    between atoms: _131  and  _132
REMARK   55  A    between atoms: _131  and  _134
REMARK   56  A    between atoms: _137  and  _139
REMARK   57  A    between atoms: _139  and  _140
REMARK   58  A    between atoms: _139  and  _142
REMARK   59  A    between atoms: _142  and  _143
REMARK   60  A    between atoms: _146  and  _148
REMARK   61  A    between atoms: _148  and  _149
REMARK   62  A    between atoms: _148  and  _151
REMARK   63  A    between atoms: _151  and  _152
REMARK   64  A    between atoms: _155  and  _157
REMARK   65  A    between atoms: _157  and  _158
REMARK   66  A    between atoms: _157  and  _160
REMARK   67  A    between atoms: _160  and  _161
REMARK   68  A    between atoms: _163  and  _165
REMARK   69  A    between atoms: _165  and  _166
REMARK   70  A    between atoms: _165  and  _168
REMARK   71  A    between atoms: _168  and  _169
REMARK   72  A    between atoms: _172  and  _174
REMARK   73  A    between atoms: _174  and  _175
REMARK   74  A    between atoms: _174  and  _177
REMARK   75  A    between atoms: _177  and  _178
REMARK   76  A    between atoms: _180  and  _182
REMARK   77  A    between atoms: _182  and  _183
REMARK   78  A    between atoms: _182  and  _185
REMARK   79  A    between atoms: _185  and  _186
REMARK   80  A    between atoms: _191  and  _193
REMARK   81  A    between atoms: _193  and  _194
REMARK   82  A    between atoms: _193  and  _196
REMARK   83  A    between atoms: _196  and  _197
REMARK   84  A    between atoms: _200  and  _202
REMARK   85  A    between atoms: _202  and  _203
REMARK   86  A    between atoms: _202  and  _205
REMARK   87  A    between atoms: _205  and  _206
REMARK   88  A    between atoms: _211  and  _213
REMARK   89  A    between atoms: _213  and  _214
REMARK   90  A    between atoms: _216  and  _218
REMARK   91  A    between atoms: _218  and  _219
REMARK   92  A    between atoms: _218  and  _221
REMARK   93  A    between atoms: _221  and  _222
REMARK   94  A    between atoms: _225  and  _227
REMARK   95  A    between atoms: _227  and  _228
REMARK   96  A    between atoms: _227  and  _230
REMARK   97  A    between atoms: _230  and  _231
REMARK   98  A    between atoms: _234  and  _236
REMARK   99  A    between atoms: _236  and  _237
REMARK  100  A    between atoms: _236  and  _239
REMARK  101  A    between atoms: _239  and  _240
REMARK  102  A    between atoms: _242  and  _244
REMARK  103  A    between atoms: _244  and  _245
REMARK  104  A    between atoms: _244  and  _247
REMARK  105  A    between atoms: _249  and  _251
REMARK  106  A    between atoms: _251  and  _252
REMARK  107  A    between atoms: _251  and  _254
REMARK  108  A    between atoms: _254  and  _255
REMARK  109  A    between atoms: _257  and  _259
REMARK  110  A    between atoms: _259  and  _260
REMARK  111  A    between atoms: _259  and  _262
REMARK  112  A    between atoms: _262  and  _263
REMARK  113  A    between atoms: _265  and  _267
REMARK  114  A    between atoms: _267  and  _268
REMARK  115  A    between atoms: _267  and  _270
REMARK  116  A    between atoms: _270  and  _271
REMARK  117  A    between atoms: _276  and  _278
REMARK  118  A    between atoms: _278  and  _279
REMARK  119  A    between atoms: _278  and  _281
REMARK  120  A    between atoms: _281  and  _282
REMARK  121  A    between atoms: _287  and  _288
REMARK  122  A    between atoms: _290  and  _292
REMARK  123  A    between atoms: _292  and  _293
REMARK  124  A    between atoms: _292  and  _295
REMARK  125  A    between atoms: _295  and  _296
REMARK  126  A    between atoms: _299  and  _301
REMARK  127  A    between atoms: _301  and  _302
REMARK  128  A    between atoms: _301  and  _304
REMARK  129  A    between atoms: _304  and  _305
REMARK  130  A    between atoms: _308  and  _310
REMARK  131  A    between atoms: _310  and  _311
REMARK  132  A    between atoms: _310  and  _313
REMARK  133  A    between atoms: _313  and  _314
REMARK  134  A    between atoms: _314  and  _315
REMARK  135  A    between atoms: _315  and  _316
REMARK  136  A    between atoms: _326  and  _327
REMARK  137  A    between atoms: _332  and  _334
REMARK  138  A    between atoms: _334  and  _335
REMARK  139  A    between atoms: _334  and  _337
REMARK  140  A    between atoms: _337  and  _338
REMARK  141  A    between atoms: _338  and  _339
REMARK  142  A    between atoms: _339  and  _340
REMARK  143  A    between atoms: _349  and  _351
REMARK  144  A    between atoms: _351  and  _352
REMARK  145  A    between atoms: _351  and  _354
REMARK  146  A    between atoms: _354  and  _355
REMARK  147  A    between atoms: _355  and  _356
REMARK  148  A    between atoms: _359  and  _361
REMARK  149  A    between atoms: _361  and  _362
REMARK  150  A    between atoms: _361  and  _364
REMARK  151  A    between atoms: _364  and  _365
REMARK  152  A    between atoms: _368  and  _370
REMARK  153  A    between atoms: _370  and  _371
REMARK  154  A    between atoms: _370  and  _373
REMARK  155  A    between atoms: _373  and  _374
REMARK  156  A    between atoms: _379  and  _381
REMARK  157  A    between atoms: _381  and  _382
REMARK  158  A    between atoms: _381  and  _384
REMARK  159  A    between atoms: _384  and  _385
REMARK  160  A    between atoms: _387  and  _389
REMARK  161  A    between atoms: _389  and  _390
REMARK  162  A    between atoms: _389  and  _392
REMARK  163  A    between atoms: _392  and  _393
REMARK  164  A    between atoms: _403  and  _405
REMARK  165  A    between atoms: _405  and  _406
REMARK  166  A    between atoms: _405  and  _408
REMARK  167  A    between atoms: _408  and  _409
REMARK  168  A    between atoms: _412  and  _414
REMARK  169  A    between atoms: _414  and  _415
REMARK  170  A    between atoms: _417  and  _419
REMARK  171  A    between atoms: _419  and  _420
REMARK  172  A    between atoms: _419  and  _422
REMARK  173  A    between atoms: _422  and  _423
REMARK  174  A    between atoms: _428  and  _430
REMARK  175  A    between atoms: _430  and  _431
REMARK  176  A    between atoms: _430  and  _433
REMARK  177  A    between atoms: _433  and  _434
REMARK  178  A    between atoms: _437  and  _439
REMARK  179  A    between atoms: _439  and  _440
REMARK  180  A    between atoms: _439  and  _442
REMARK  181  A    between atoms: _442  and  _443
REMARK  182  A    between atoms: _446  and  _448
REMARK  183  A    between atoms: _448  and  _449
REMARK  184  A    between atoms: _448  and  _451
REMARK  185  A    between atoms: _451  and  _452
REMARK  186  A    between atoms: _452  and  _453
REMARK  187  A    between atoms: _455  and  _457
REMARK  188  A    between atoms: _457  and  _458
REMARK  189  A    between atoms: _457  and  _460
REMARK  190  A    between atoms: _460  and  _461
REMARK  191  A    between atoms: _466  and  _467
REMARK  192  A    between atoms: _469  and  _471
REMARK  193  A    between atoms: _471  and  _472
REMARK  194  A    between atoms: _476  and  _477
REMARK  195  A    between atoms: _482  and  _484
REMARK  196  A    between atoms: _484  and  _485
REMARK  197  A    between atoms: _484  and  _487
REMARK  198  A    between atoms: _487  and  _488
REMARK  199  A    between atoms: _491  and  _493
REMARK  200  A    between atoms: _493  and  _494
REMARK  201  A    between atoms: _493  and  _496
REMARK  202  A    between atoms: _496  and  _497
REMARK  203  A    between atoms: _507  and  _509
REMARK  204  A    between atoms: _509  and  _510
REMARK  205  A    between atoms: _509  and  _512
REMARK  206  A    between atoms: _514  and  _516
REMARK  207  A    between atoms: _516  and  _517
REMARK  208  A    between atoms: _516  and  _519
REMARK  209  A    between atoms: _519  and  _520
REMARK  210  A    between atoms: _520  and  _521
REMARK  211  A    between atoms: _526  and  _528
REMARK  212  A    between atoms: _528  and  _529
REMARK  213  A    between atoms: _528  and  _531
REMARK  214  A    between atoms: _531  and  _532
REMARK  215  A    between atoms: _535  and  _537
REMARK  216  A    between atoms: _537  and  _538
REMARK  217  A    between atoms: _537  and  _540
REMARK  218  A    between atoms: _540  and  _541
REMARK  219  A    between atoms: _546  and  _547
REMARK  220  A    between atoms: _549  and  _551
REMARK  221  A    between atoms: _551  and  _552
REMARK  222  A    between atoms: _554  and  _556
REMARK  223  A    between atoms: _556  and  _557
REMARK  224  A    between atoms: _560  and  _562
REMARK  225  A    between atoms: _562  and  _563
REMARK  226  A    between atoms: _562  and  _565
REMARK  227  A    between atoms: _567  and  _569
REMARK  228  A    between atoms: _569  and  _570
REMARK  229  A    between atoms: _569  and  _572
REMARK  230  A    between atoms: _572  and  _573
REMARK  231  A    between atoms: _578  and  _579
REMARK  232  A    between atoms: _581  and  _583
REMARK  233  A    between atoms: _583  and  _584
REMARK  234  A    between atoms: _583  and  _586
REMARK  235  A    between atoms: _586  and  _587
REMARK  236  A    between atoms: _590  and  _592
REMARK  237  A    between atoms: _592  and  _593
REMARK  238  A    between atoms: _592  and  _595
REMARK  239  A    between atoms: _595  and  _596
REMARK  240  A    between atoms: _601  and  _603
REMARK  241  A    between atoms: _603  and  _604
REMARK  242  A    between atoms: _603  and  _606
REMARK  243  A    between atoms: _606  and  _607
REMARK  244  A    between atoms: _617  and  _619
REMARK  245  A    between atoms: _619  and  _620
REMARK  246  A    between atoms: _619  and  _622
REMARK  247  A    between atoms: _622  and  _623
REMARK  248  A    between atoms: _629  and  _631
REMARK  249  A    between atoms: _631  and  _632
REMARK  250  A    between atoms: _635  and  _637
REMARK  251  A    between atoms: _637  and  _638
REMARK  252  A    between atoms: _640  and  _642
REMARK  253  A    between atoms: _642  and  _643
REMARK  254  A    between atoms: _642  and  _645
REMARK  255  A    between atoms: _645  and  _646
REMARK  256  A    between atoms: _651  and  _652
REMARK  257  A    between atoms: _654  and  _656
REMARK  258  A    between atoms: _656  and  _657
REMARK  259  A    between atoms: _656  and  _659
REMARK  260  A    between atoms: _659  and  _660
REMARK  261  A    between atoms: _662  and  _664
REMARK  262  A    between atoms: _664  and  _665
REMARK                            x       y       z     vdW  Elec       q    Type
REMARK                         _______ _______ _______ _____ _____    ______ ____
ROOT
ATOM      1  O   HOH     1     -27.559  -4.103  26.443  0.00  0.00    +0.000 OA
ENDROOT
TORSDOF 0
REMARK  Name = ../refined-set-2016/3hky/3hky_pocket.pdb
REMARK  262 active torsions:
REMARK  status: ('A' for Active; 'I' for Inactive)
REMARK    1  A    between atoms: _1  and  _3
REMARK    2  A    between atoms: _3  and  _4
REMARK    3  A    between atoms: _3  and  _6
REMARK    4  A    between atoms: _6  and  _7
REMARK    5  A    between atoms: _7  and  _8
REMARK    6  A    between atoms: _8  and  _9
REMARK    7  A    between atoms: _9  and  _10
REMARK    8  A    between atoms: _14  and  _16
REMARK    9  A    between atoms: _16  and  _17
REMARK   10  A    between atoms: _16  and  _19
REMARK   11  A    between atoms: _19  and  _20
REMARK   12  A    between atoms: _20  and  _21
REMARK   13  A    between atoms: _24  and  _26
REMARK   14  A    between atoms: _26  and  _27
REMARK   15  A    between atoms: _26  and  _29
REMARK   16  A    between atoms: _29  and  _30
REMARK   17  A    between atoms: _30  and  _31
REMARK   18  A    between atoms: _31  and  _32
REMARK   19  A    between atoms: _41  and  _43
REMARK   20  A    between atoms: _43  and  _44
REMARK   21  A    between atoms: _46  and  _48
REMARK   22  A    between atoms: _48  and  _49
REMARK   23  A    between atoms: _48  and  _51
REMARK   24  A    between atoms: _51  and  _52
REMARK   25  A    between atoms: _58  and  _60
REMARK   26  A    between atoms: _60  and  _61
REMARK   27  A    between atoms: _60  and  _63
REMARK   28  A    between atoms: _63  and  _64
REMARK   29  A    between atoms: _69  and  _70
REMARK   30  A    between atoms: _72  and  _74
REMARK   31  A    between atoms: _74  and  _75
REMARK   32  A    between atoms: _74  and  _77
REMARK   33  A    between atoms: _77  and  _78
REMARK   34  A    between atoms: _81  and  _82
REMARK   35  A    between atoms: _87  and  _89
REMARK   36  A    between atoms: _89  and  _90
REMARK   37  A    between atoms: _89  and  _92
REMARK   38  A    between atoms: _92  and  _93
REMARK   39  A    between atoms: _93  and  _94
REMARK   40  A    between atoms: _94  and  _95
REMARK   41  A    between atoms: _95  and  _96
REMARK   42  A    between atoms: _100  and  _102
REMARK   43  A    between atoms: _102  and  _103
REMARK   44  A    between atoms: _102  and  _105
REMARK   45  A    between atoms: _105  and  _106
REMARK   46  A    between atoms: _106  and  _107
REMARK   47  A    between atoms: _112  and  _114
REMARK   48  A    between atoms: _114  and  _115
REMARK   49  A    between atoms: _114  and  _117
REMARK   50  A    between atoms: _117  and  _118
REMARK   51  A    between atoms: _118  and  _119
REMARK   52  A    between atoms: _119  and  _120
REMARK   53  A    between atoms: _129  and  _131
REMARK   54  A    between atoms: _131  and  _132
REMARK   55  A    between atoms: _131  and  _134
REMARK   56  A    between atoms: _137  and  _139
REMARK   57  A    between atoms: _139  and  _140
REMARK   58  A    between atoms: _139  and  _142
REMARK   59  A    between atoms: _142  and  _143
REMARK   60  A    between atoms: _146  and  _148
REMARK   61  A    between atoms: _148  and  _149
REMARK   62  A    between atoms: _148  and  _151
REMARK   63  A    between atoms: _151  and  _152
REMARK   64  A    between atoms: _155  and  _157
REMARK   65  A    between atoms: _157  and  _158
REMARK   66  A    between atoms: _157  and  _160
REMARK   67  A    between atoms: _160  and  _161
REMARK   68  A    between atoms: _163  and  _165
REMARK   69  A    between atoms: _165  and  _166
REMARK   70  A    between atoms: _165  and  _168
REMARK   71  A    between atoms: _168  and  _169
REMARK   72  A    between atoms: _172  and  _174
REMARK   73  A    between atoms: _174  and  _175
REMARK   74  A    between atoms: _174  and  _177
REMARK   75  A    between atoms: _177  and  _178
REMARK   76  A    between atoms: _180  and  _182
REMARK   77  A    between atoms: _182  and  _183
REMARK   78  A    between atoms: _182  and  _185
REMARK   79  A    between atoms: _185  and  _186
REMARK   80  A    between atoms: _191  and  _193
REMARK   81  A    between atoms: _193  and  _194
REMARK   82  A    between atoms: _193  and  _196
REMARK   83  A    between atoms: _196  and  _197
REMARK   84  A    between atoms: _200  and  _202
REMARK   85  A    between atoms: _202  and  _203
REMARK   86  A    between atoms: _202  and  _205
REMARK   87  A    between atoms: _205  and  _206
REMARK   88  A    between atoms: _211  and  _213
REMARK   89  A    between atoms: _213  and  _214
REMARK   90  A    between atoms: _216  and  _218
REMARK   91  A    between atoms: _218  and  _219
REMARK   92  A    between atoms: _218  and  _221
REMARK   93  A    between atoms: _221  and  _222
REMARK   94  A    between atoms: _225  and  _227
REMARK   95  A    between atoms: _227  and  _228
REMARK   96  A    between atoms: _227  and  _230
REMARK   97  A    between atoms: _230  and  _231
REMARK   98  A    between atoms: _234  and  _236
REMARK   99  A    between atoms: _236  and  _237
REMARK  100  A    between atoms: _236  and  _239
REMARK  101  A    between atoms: _239  and  _240
REMARK  102  A    between atoms: _242  and  _244
REMARK  103  A    between atoms: _244  and  _245
REMARK  104  A    between atoms: _244  and  _247
REMARK  105  A    between atoms: _249  and  _251
REMARK  106  A    between atoms: _251  and  _252
REMARK  107  A    between atoms: _251  and  _254
REMARK  108  A    between atoms: _254  and  _255
REMARK  109  A    between atoms: _257  and  _259
REMARK  110  A    between atoms: _259  and  _260
REMARK  111  A    between atoms: _259  and  _262
REMARK  112  A    between atoms: _262  and  _263
REMARK  113  A    between atoms: _265  and  _267
REMARK  114  A    between atoms: _267  and  _268
REMARK  115  A    between atoms: _267  and  _270
REMARK  116  A    between atoms: _270  and  _271
REMARK  117  A    between atoms: _276  and  _278
REMARK  118  A    between atoms: _278  and  _279
REMARK  119  A    between atoms: _278  and  _281
REMARK  120  A    between atoms: _281  and  _282
REMARK  121  A    between atoms: _287  and  _288
REMARK  122  A    between atoms: _290  and  _292
REMARK  123  A    between atoms: _292  and  _293
REMARK  124  A    between atoms: _292  and  _295
REMARK  125  A    between atoms: _295  and  _296
REMARK  126  A    between atoms: _299  and  _301
REMARK  127  A    between atoms: _301  and  _302
REMARK  128  A    between atoms: _301  and  _304
REMARK  129  A    between atoms: _304  and  _305
REMARK  130  A    between atoms: _308  and  _310
REMARK  131  A    between atoms: _310  and  _311
REMARK  132  A    between atoms: _310  and  _313
REMARK  133  A    between atoms: _313  and  _314
REMARK  134  A    between atoms: _314  and  _315
REMARK  135  A    between atoms: _315  and  _316
REMARK  136  A    between atoms: _326  and  _327
REMARK  137  A    between atoms: _332  and  _334
REMARK  138  A    between atoms: _334  and  _335
REMARK  139  A    between atoms: _334  and  _337
REMARK  140  A    between atoms: _337  and  _338
REMARK  141  A    between atoms: _338  and  _339
REMARK  142  A    between atoms: _339  and  _340
REMARK  143  A    between atoms: _349  and  _351
REMARK  144  A    between atoms: _351  and  _352
REMARK  145  A    between atoms: _351  and  _354
REMARK  146  A    between atoms: _354  and  _355
REMARK  147  A    between atoms: _355  and  _356
REMARK  148  A    between atoms: _359  and  _361
REMARK  149  A    between atoms: _361  and  _362
REMARK  150  A    between atoms: _361  and  _364
REMARK  151  A    between atoms: _364  and  _365
REMARK  152  A    between atoms: _368  and  _370
REMARK  153  A    between atoms: _370  and  _371
REMARK  154  A    between atoms: _370  and  _373
REMARK  155  A    between atoms: _373  and  _374
REMARK  156  A    between atoms: _379  and  _381
REMARK  157  A    between atoms: _381  and  _382
REMARK  158  A    between atoms: _381  and  _384
REMARK  159  A    between atoms: _384  and  _385
REMARK  160  A    between atoms: _387  and  _389
REMARK  161  A    between atoms: _389  and  _390
REMARK  162  A    between atoms: _389  and  _392
REMARK  163  A    between atoms: _392  and  _393
REMARK  164  A    between atoms: _403  and  _405
REMARK  165  A    between atoms: _405  and  _406
REMARK  166  A    between atoms: _405  and  _408
REMARK  167  A    between atoms: _408  and  _409
REMARK  168  A    between atoms: _412  and  _414
REMARK  169  A    between atoms: _414  and  _415
REMARK  170  A    between atoms: _417  and  _419
REMARK  171  A    between atoms: _419  and  _420
REMARK  172  A    between atoms: _419  and  _422
REMARK  173  A    between atoms: _422  and  _423
REMARK  174  A    between atoms: _428  and  _430
REMARK  175  A    between atoms: _430  and  _431
REMARK  176  A    between atoms: _430  and  _433
REMARK  177  A    between atoms: _433  and  _434
REMARK  178  A    between atoms: _437  and  _439
REMARK  179  A    between atoms: _439  and  _440
REMARK  180  A    between atoms: _439  and  _442
REMARK  181  A    between atoms: _442  and  _443
REMARK  182  A    between atoms: _446  and  _448
REMARK  183  A    between atoms: _448  and  _449
REMARK  184  A    between atoms: _448  and  _451
REMARK  185  A    between atoms: _451  and  _452
REMARK  186  A    between atoms: _452  and  _453
REMARK  187  A    between atoms: _455  and  _457
REMARK  188  A    between atoms: _457  and  _458
REMARK  189  A    between atoms: _457  and  _460
REMARK  190  A    between atoms: _460  and  _461
REMARK  191  A    between atoms: _466  and  _467
REMARK  192  A    between atoms: _469  and  _471
REMARK  193  A    between atoms: _471  and  _472
REMARK  194  A    between atoms: _476  and  _477
REMARK  195  A    between atoms: _482  and  _484
REMARK  196  A    between atoms: _484  and  _485
REMARK  197  A    between atoms: _484  and  _487
REMARK  198  A    between atoms: _487  and  _488
REMARK  199  A    between atoms: _491  and  _493
REMARK  200  A    between atoms: _493  and  _494
REMARK  201  A    between atoms: _493  and  _496
REMARK  202  A    between atoms: _496  and  _497
REMARK  203  A    between atoms: _507  and  _509
REMARK  204  A    between atoms: _509  and  _510
REMARK  205  A    between atoms: _509  and  _512
REMARK  206  A    between atoms: _514  and  _516
REMARK  207  A    between atoms: _516  and  _517
REMARK  208  A    between atoms: _516  and  _519
REMARK  209  A    between atoms: _519  and  _520
REMARK  210  A    between atoms: _520  and  _521
REMARK  211  A    between atoms: _526  and  _528
REMARK  212  A    between atoms: _528  and  _529
REMARK  213  A    between atoms: _528  and  _531
REMARK  214  A    between atoms: _531  and  _532
REMARK  215  A    between atoms: _535  and  _537
REMARK  216  A    between atoms: _537  and  _538
REMARK  217  A    between atoms: _537  and  _540
REMARK  218  A    between atoms: _540  and  _541
REMARK  219  A    between atoms: _546  and  _547
REMARK  220  A    between atoms: _549  and  _551
REMARK  221  A    between atoms: _551  and  _552
REMARK  222  A    between atoms: _554  and  _556
REMARK  223  A    between atoms: _556  and  _557
REMARK  224  A    between atoms: _560  and  _562
REMARK  225  A    between atoms: _562  and  _563
REMARK  226  A    between atoms: _562  and  _565
REMARK  227  A    between atoms: _567  and  _569
REMARK  228  A    between atoms: _569  and  _570
REMARK  229  A    between atoms: _569  and  _572
REMARK  230  A    between atoms: _572  and  _573
REMARK  231  A    between atoms: _578  and  _579
REMARK  232  A    between atoms: _581  and  _583
REMARK  233  A    between atoms: _583  and  _584
REMARK  234  A    between atoms: _583  and  _586
REMARK  235  A    between atoms: _586  and  _587
REMARK  236  A    between atoms: _590  and  _592
REMARK  237  A    between atoms: _592  and  _593
REMARK  238  A    between atoms: _592  and  _595
REMARK  239  A    between atoms: _595  and  _596
REMARK  240  A    between atoms: _601  and  _603
REMARK  241  A    between atoms: _603  and  _604
REMARK  242  A    between atoms: _603  and  _606
REMARK  243  A    between atoms: _606  and  _607
REMARK  244  A    between atoms: _617  and  _619
REMARK  245  A    between atoms: _619  and  _620
REMARK  246  A    between atoms: _619  and  _622
REMARK  247  A    between atoms: _622  and  _623
REMARK  248  A    between atoms: _629  and  _631
REMARK  249  A    between atoms: _631  and  _632
REMARK  250  A    between atoms: _635  and  _637
REMARK  251  A    between atoms: _637  and  _638
REMARK  252  A    between atoms: _640  and  _642
REMARK  253  A    between atoms: _642  and  _643
REMARK  254  A    between atoms: _642  and  _645
REMARK  255  A    between atoms: _645  and  _646
REMARK  256  A    between atoms: _651  and  _652
REMARK  257  A    between atoms: _654  and  _656
REMARK  258  A    between atoms: _656  and  _657
REMARK  259  A    between atoms: _656  and  _659
REMARK  260  A    between atoms: _659  and  _660
REMARK  261  A    between atoms: _662  and  _664
REMARK  262  A    between atoms: _664  and  _665
REMARK                            x       y       z     vdW  Elec       q    Type
REMARK                         _______ _______ _______ _____ _____    ______ ____
ROOT
ATOM      1  O   HOH     1     -23.076  -2.474  30.699  0.00  0.00    +0.000 OA
ENDROOT
TORSDOF 0
REMARK  Name = ../refined-set-2016/3hky/3hky_pocket.pdb
REMARK  262 active torsions:
REMARK  status: ('A' for Active; 'I' for Inactive)
REMARK    1  A    between atoms: _1  and  _3
REMARK    2  A    between atoms: _3  and  _4
REMARK    3  A    between atoms: _3  and  _6
REMARK    4  A    between atoms: _6  and  _7
REMARK    5  A    between atoms: _7  and  _8
REMARK    6  A    between atoms: _8  and  _9
REMARK    7  A    between atoms: _9  and  _10
REMARK    8  A    between atoms: _14  and  _16
REMARK    9  A    between atoms: _16  and  _17
REMARK   10  A    between atoms: _16  and  _19
REMARK   11  A    between atoms: _19  and  _20
REMARK   12  A    between atoms: _20  and  _21
REMARK   13  A    between atoms: _24  and  _26
REMARK   14  A    between atoms: _26  and  _27
REMARK   15  A    between atoms: _26  and  _29
REMARK   16  A    between atoms: _29  and  _30
REMARK   17  A    between atoms: _30  and  _31
REMARK   18  A    between atoms: _31  and  _32
REMARK   19  A    between atoms: _41  and  _43
REMARK   20  A    between atoms: _43  and  _44
REMARK   21  A    between atoms: _46  and  _48
REMARK   22  A    between atoms: _48  and  _49
REMARK   23  A    between atoms: _48  and  _51
REMARK   24  A    between atoms: _51  and  _52
REMARK   25  A    between atoms: _58  and  _60
REMARK   26  A    between atoms: _60  and  _61
REMARK   27  A    between atoms: _60  and  _63
REMARK   28  A    between atoms: _63  and  _64
REMARK   29  A    between atoms: _69  and  _70
REMARK   30  A    between atoms: _72  and  _74
REMARK   31  A    between atoms: _74  and  _75
REMARK   32  A    between atoms: _74  and  _77
REMARK   33  A    between atoms: _77  and  _78
REMARK   34  A    between atoms: _81  and  _82
REMARK   35  A    between atoms: _87  and  _89
REMARK   36  A    between atoms: _89  and  _90
REMARK   37  A    between atoms: _89  and  _92
REMARK   38  A    between atoms: _92  and  _93
REMARK   39  A    between atoms: _93  and  _94
REMARK   40  A    between atoms: _94  and  _95
REMARK   41  A    between atoms: _95  and  _96
REMARK   42  A    between atoms: _100  and  _102
REMARK   43  A    between atoms: _102  and  _103
REMARK   44  A    between atoms: _102  and  _105
REMARK   45  A    between atoms: _105  and  _106
REMARK   46  A    between atoms: _106  and  _107
REMARK   47  A    between atoms: _112  and  _114
REMARK   48  A    between atoms: _114  and  _115
REMARK   49  A    between atoms: _114  and  _117
REMARK   50  A    between atoms: _117  and  _118
REMARK   51  A    between atoms: _118  and  _119
REMARK   52  A    between atoms: _119  and  _120
REMARK   53  A    between atoms: _129  and  _131
REMARK   54  A    between atoms: _131  and  _132
REMARK   55  A    between atoms: _131  and  _134
REMARK   56  A    between atoms: _137  and  _139
REMARK   57  A    between atoms: _139  and  _140
REMARK   58  A    between atoms: _139  and  _142
REMARK   59  A    between atoms: _142  and  _143
REMARK   60  A    between atoms: _146  and  _148
REMARK   61  A    between atoms: _148  and  _149
REMARK   62  A    between atoms: _148  and  _151
REMARK   63  A    between atoms: _151  and  _152
REMARK   64  A    between atoms: _155  and  _157
REMARK   65  A    between atoms: _157  and  _158
REMARK   66  A    between atoms: _157  and  _160
REMARK   67  A    between atoms: _160  and  _161
REMARK   68  A    between atoms: _163  and  _165
REMARK   69  A    between atoms: _165  and  _166
REMARK   70  A    between atoms: _165  and  _168
REMARK   71  A    between atoms: _168  and  _169
REMARK   72  A    between atoms: _172  and  _174
REMARK   73  A    between atoms: _174  and  _175
REMARK   74  A    between atoms: _174  and  _177
REMARK   75  A    between atoms: _177  and  _178
REMARK   76  A    between atoms: _180  and  _182
REMARK   77  A    between atoms: _182  and  _183
REMARK   78  A    between atoms: _182  and  _185
REMARK   79  A    between atoms: _185  and  _186
REMARK   80  A    between atoms: _191  and  _193
REMARK   81  A    between atoms: _193  and  _194
REMARK   82  A    between atoms: _193  and  _196
REMARK   83  A    between atoms: _196  and  _197
REMARK   84  A    between atoms: _200  and  _202
REMARK   85  A    between atoms: _202  and  _203
REMARK   86  A    between atoms: _202  and  _205
REMARK   87  A    between atoms: _205  and  _206
REMARK   88  A    between atoms: _211  and  _213
REMARK   89  A    between atoms: _213  and  _214
REMARK   90  A    between atoms: _216  and  _218
REMARK   91  A    between atoms: _218  and  _219
REMARK   92  A    between atoms: _218  and  _221
REMARK   93  A    between atoms: _221  and  _222
REMARK   94  A    between atoms: _225  and  _227
REMARK   95  A    between atoms: _227  and  _228
REMARK   96  A    between atoms: _227  and  _230
REMARK   97  A    between atoms: _230  and  _231
REMARK   98  A    between atoms: _234  and  _236
REMARK   99  A    between atoms: _236  and  _237
REMARK  100  A    between atoms: _236  and  _239
REMARK  101  A    between atoms: _239  and  _240
REMARK  102  A    between atoms: _242  and  _244
REMARK  103  A    between atoms: _244  and  _245
REMARK  104  A    between atoms: _244  and  _247
REMARK  105  A    between atoms: _249  and  _251
REMARK  106  A    between atoms: _251  and  _252
REMARK  107  A    between atoms: _251  and  _254
REMARK  108  A    between atoms: _254  and  _255
REMARK  109  A    between atoms: _257  and  _259
REMARK  110  A    between atoms: _259  and  _260
REMARK  111  A    between atoms: _259  and  _262
REMARK  112  A    between atoms: _262  and  _263
REMARK  113  A    between atoms: _265  and  _267
REMARK  114  A    between atoms: _267  and  _268
REMARK  115  A    between atoms: _267  and  _270
REMARK  116  A    between atoms: _270  and  _271
REMARK  117  A    between atoms: _276  and  _278
REMARK  118  A    between atoms: _278  and  _279
REMARK  119  A    between atoms: _278  and  _281
REMARK  120  A    between atoms: _281  and  _282
REMARK  121  A    between atoms: _287  and  _288
REMARK  122  A    between atoms: _290  and  _292
REMARK  123  A    between atoms: _292  and  _293
REMARK  124  A    between atoms: _292  and  _295
REMARK  125  A    between atoms: _295  and  _296
REMARK  126  A    between atoms: _299  and  _301
REMARK  127  A    between atoms: _301  and  _302
REMARK  128  A    between atoms: _301  and  _304
REMARK  129  A    between atoms: _304  and  _305
REMARK  130  A    between atoms: _308  and  _310
REMARK  131  A    between atoms: _310  and  _311
REMARK  132  A    between atoms: _310  and  _313
REMARK  133  A    between atoms: _313  and  _314
REMARK  134  A    between atoms: _314  and  _315
REMARK  135  A    between atoms: _315  and  _316
REMARK  136  A    between atoms: _326  and  _327
REMARK  137  A    between atoms: _332  and  _334
REMARK  138  A    between atoms: _334  and  _335
REMARK  139  A    between atoms: _334  and  _337
REMARK  140  A    between atoms: _337  and  _338
REMARK  141  A    between atoms: _338  and  _339
REMARK  142  A    between atoms: _339  and  _340
REMARK  143  A    between atoms: _349  and  _351
REMARK  144  A    between atoms: _351  and  _352
REMARK  145  A    between atoms: _351  and  _354
REMARK  146  A    between atoms: _354  and  _355
REMARK  147  A    between atoms: _355  and  _356
REMARK  148  A    between atoms: _359  and  _361
REMARK  149  A    between atoms: _361  and  _362
REMARK  150  A    between atoms: _361  and  _364
REMARK  151  A    between atoms: _364  and  _365
REMARK  152  A    between atoms: _368  and  _370
REMARK  153  A    between atoms: _370  and  _371
REMARK  154  A    between atoms: _370  and  _373
REMARK  155  A    between atoms: _373  and  _374
REMARK  156  A    between atoms: _379  and  _381
REMARK  157  A    between atoms: _381  and  _382
REMARK  158  A    between atoms: _381  and  _384
REMARK  159  A    between atoms: _384  and  _385
REMARK  160  A    between atoms: _387  and  _389
REMARK  161  A    between atoms: _389  and  _390
REMARK  162  A    between atoms: _389  and  _392
REMARK  163  A    between atoms: _392  and  _393
REMARK  164  A    between atoms: _403  and  _405
REMARK  165  A    between atoms: _405  and  _406
REMARK  166  A    between atoms: _405  and  _408
REMARK  167  A    between atoms: _408  and  _409
REMARK  168  A    between atoms: _412  and  _414
REMARK  169  A    between atoms: _414  and  _415
REMARK  170  A    between atoms: _417  and  _419
REMARK  171  A    between atoms: _419  and  _420
REMARK  172  A    between atoms: _419  and  _422
REMARK  173  A    between atoms: _422  and  _423
REMARK  174  A    between atoms: _428  and  _430
REMARK  175  A    between atoms: _430  and  _431
REMARK  176  A    between atoms: _430  and  _433
REMARK  177  A    between atoms: _433  and  _434
REMARK  178  A    between atoms: _437  and  _439
REMARK  179  A    between atoms: _439  and  _440
REMARK  180  A    between atoms: _439  and  _442
REMARK  181  A    between atoms: _442  and  _443
REMARK  182  A    between atoms: _446  and  _448
REMARK  183  A    between atoms: _448  and  _449
REMARK  184  A    between atoms: _448  and  _451
REMARK  185  A    between atoms: _451  and  _452
REMARK  186  A    between atoms: _452  and  _453
REMARK  187  A    between atoms: _455  and  _457
REMARK  188  A    between atoms: _457  and  _458
REMARK  189  A    between atoms: _457  and  _460
REMARK  190  A    between atoms: _460  and  _461
REMARK  191  A    between atoms: _466  and  _467
REMARK  192  A    between atoms: _469  and  _471
REMARK  193  A    between atoms: _471  and  _472
REMARK  194  A    between atoms: _476  and  _477
REMARK  195  A    between atoms: _482  and  _484
REMARK  196  A    between atoms: _484  and  _485
REMARK  197  A    between atoms: _484  and  _487
REMARK  198  A    between atoms: _487  and  _488
REMARK  199  A    between atoms: _491  and  _493
REMARK  200  A    between atoms: _493  and  _494
REMARK  201  A    between atoms: _493  and  _496
REMARK  202  A    between atoms: _496  and  _497
REMARK  203  A    between atoms: _507  and  _509
REMARK  204  A    between atoms: _509  and  _510
REMARK  205  A    between atoms: _509  and  _512
REMARK  206  A    between atoms: _514  and  _516
REMARK  207  A    between atoms: _516  and  _517
REMARK  208  A    between atoms: _516  and  _519
REMARK  209  A    between atoms: _519  and  _520
REMARK  210  A    between atoms: _520  and  _521
REMARK  211  A    between atoms: _526  and  _528
REMARK  212  A    between atoms: _528  and  _529
REMARK  213  A    between atoms: _528  and  _531
REMARK  214  A    between atoms: _531  and  _532
REMARK  215  A    between atoms: _535  and  _537
REMARK  216  A    between atoms: _537  and  _538
REMARK  217  A    between atoms: _537  and  _540
REMARK  218  A    between atoms: _540  and  _541
REMARK  219  A    between atoms: _546  and  _547
REMARK  220  A    between atoms: _549  and  _551
REMARK  221  A    between atoms: _551  and  _552
REMARK  222  A    between atoms: _554  and  _556
REMARK  223  A    between atoms: _556  and  _557
REMARK  224  A    between atoms: _560  and  _562
REMARK  225  A    between atoms: _562  and  _563
REMARK  226  A    between atoms: _562  and  _565
REMARK  227  A    between atoms: _567  and  _569
REMARK  228  A    between atoms: _569  and  _570
REMARK  229  A    between atoms: _569  and  _572
REMARK  230  A    between atoms: _572  and  _573
REMARK  231  A    between atoms: _578  and  _579
REMARK  232  A    between atoms: _581  and  _583
REMARK  233  A    between atoms: _583  and  _584
REMARK  234  A    between atoms: _583  and  _586
REMARK  235  A    between atoms: _586  and  _587
REMARK  236  A    between atoms: _590  and  _592
REMARK  237  A    between atoms: _592  and  _593
REMARK  238  A    between atoms: _592  and  _595
REMARK  239  A    between atoms: _595  and  _596
REMARK  240  A    between atoms: _601  and  _603
REMARK  241  A    between atoms: _603  and  _604
REMARK  242  A    between atoms: _603  and  _606
REMARK  243  A    between atoms: _606  and  _607
REMARK  244  A    between atoms: _617  and  _619
REMARK  245  A    between atoms: _619  and  _620
REMARK  246  A    between atoms: _619  and  _622
REMARK  247  A    between atoms: _622  and  _623
REMARK  248  A    between atoms: _629  and  _631
REMARK  249  A    between atoms: _631  and  _632
REMARK  250  A    between atoms: _635  and  _637
REMARK  251  A    between atoms: _637  and  _638
REMARK  252  A    between atoms: _640  and  _642
REMARK  253  A    between atoms: _642  and  _643
REMARK  254  A    between atoms: _642  and  _645
REMARK  255  A    between atoms: _645  and  _646
REMARK  256  A    between atoms: _651  and  _652
REMARK  257  A    between atoms: _654  and  _656
REMARK  258  A    between atoms: _656  and  _657
REMARK  259  A    between atoms: _656  and  _659
REMARK  260  A    between atoms: _659  and  _660
REMARK  261  A    between atoms: _662  and  _664
REMARK  262  A    between atoms: _664  and  _665
REMARK                            x       y       z     vdW  Elec       q    Type
REMARK                         _______ _______ _______ _____ _____    ______ ____
ROOT
ATOM      1  O   HOH     1     -19.541 -15.420  30.272  0.00  0.00    +0.000 OA
ENDROOT
TORSDOF 0
REMARK  Name = ../refined-set-2016/3hky/3hky_pocket.pdb
REMARK  262 active torsions:
REMARK  status: ('A' for Active; 'I' for Inactive)
REMARK    1  A    between atoms: _1  and  _3
REMARK    2  A    between atoms: _3  and  _4
REMARK    3  A    between atoms: _3  and  _6
REMARK    4  A    between atoms: _6  and  _7
REMARK    5  A    between atoms: _7  and  _8
REMARK    6  A    between atoms: _8  and  _9
REMARK    7  A    between atoms: _9  and  _10
REMARK    8  A    between atoms: _14  and  _16
REMARK    9  A    between atoms: _16  and  _17
REMARK   10  A    between atoms: _16  and  _19
REMARK   11  A    between atoms: _19  and  _20
REMARK   12  A    between atoms: _20  and  _21
REMARK   13  A    between atoms: _24  and  _26
REMARK   14  A    between atoms: _26  and  _27
REMARK   15  A    between atoms: _26  and  _29
REMARK   16  A    between atoms: _29  and  _30
REMARK   17  A    between atoms: _30  and  _31
REMARK   18  A    between atoms: _31  and  _32
REMARK   19  A    between atoms: _41  and  _43
REMARK   20  A    between atoms: _43  and  _44
REMARK   21  A    between atoms: _46  and  _48
REMARK   22  A    between atoms: _48  and  _49
REMARK   23  A    between atoms: _48  and  _51
REMARK   24  A    between atoms: _51  and  _52
REMARK   25  A    between atoms: _58  and  _60
REMARK   26  A    between atoms: _60  and  _61
REMARK   27  A    between atoms: _60  and  _63
REMARK   28  A    between atoms: _63  and  _64
REMARK   29  A    between atoms: _69  and  _70
REMARK   30  A    between atoms: _72  and  _74
REMARK   31  A    between atoms: _74  and  _75
REMARK   32  A    between atoms: _74  and  _77
REMARK   33  A    between atoms: _77  and  _78
REMARK   34  A    between atoms: _81  and  _82
REMARK   35  A    between atoms: _87  and  _89
REMARK   36  A    between atoms: _89  and  _90
REMARK   37  A    between atoms: _89  and  _92
REMARK   38  A    between atoms: _92  and  _93
REMARK   39  A    between atoms: _93  and  _94
REMARK   40  A    between atoms: _94  and  _95
REMARK   41  A    between atoms: _95  and  _96
REMARK   42  A    between atoms: _100  and  _102
REMARK   43  A    between atoms: _102  and  _103
REMARK   44  A    between atoms: _102  and  _105
REMARK   45  A    between atoms: _105  and  _106
REMARK   46  A    between atoms: _106  and  _107
REMARK   47  A    between atoms: _112  and  _114
REMARK   48  A    between atoms: _114  and  _115
REMARK   49  A    between atoms: _114  and  _117
REMARK   50  A    between atoms: _117  and  _118
REMARK   51  A    between atoms: _118  and  _119
REMARK   52  A    between atoms: _119  and  _120
REMARK   53  A    between atoms: _129  and  _131
REMARK   54  A    between atoms: _131  and  _132
REMARK   55  A    between atoms: _131  and  _134
REMARK   56  A    between atoms: _137  and  _139
REMARK   57  A    between atoms: _139  and  _140
REMARK   58  A    between atoms: _139  and  _142
REMARK   59  A    between atoms: _142  and  _143
REMARK   60  A    between atoms: _146  and  _148
REMARK   61  A    between atoms: _148  and  _149
REMARK   62  A    between atoms: _148  and  _151
REMARK   63  A    between atoms: _151  and  _152
REMARK   64  A    between atoms: _155  and  _157
REMARK   65  A    between atoms: _157  and  _158
REMARK   66  A    between atoms: _157  and  _160
REMARK   67  A    between atoms: _160  and  _161
REMARK   68  A    between atoms: _163  and  _165
REMARK   69  A    between atoms: _165  and  _166
REMARK   70  A    between atoms: _165  and  _168
REMARK   71  A    between atoms: _168  and  _169
REMARK   72  A    between atoms: _172  and  _174
REMARK   73  A    between atoms: _174  and  _175
REMARK   74  A    between atoms: _174  and  _177
REMARK   75  A    between atoms: _177  and  _178
REMARK   76  A    between atoms: _180  and  _182
REMARK   77  A    between atoms: _182  and  _183
REMARK   78  A    between atoms: _182  and  _185
REMARK   79  A    between atoms: _185  and  _186
REMARK   80  A    between atoms: _191  and  _193
REMARK   81  A    between atoms: _193  and  _194
REMARK   82  A    between atoms: _193  and  _196
REMARK   83  A    between atoms: _196  and  _197
REMARK   84  A    between atoms: _200  and  _202
REMARK   85  A    between atoms: _202  and  _203
REMARK   86  A    between atoms: _202  and  _205
REMARK   87  A    between atoms: _205  and  _206
REMARK   88  A    between atoms: _211  and  _213
REMARK   89  A    between atoms: _213  and  _214
REMARK   90  A    between atoms: _216  and  _218
REMARK   91  A    between atoms: _218  and  _219
REMARK   92  A    between atoms: _218  and  _221
REMARK   93  A    between atoms: _221  and  _222
REMARK   94  A    between atoms: _225  and  _227
REMARK   95  A    between atoms: _227  and  _228
REMARK   96  A    between atoms: _227  and  _230
REMARK   97  A    between atoms: _230  and  _231
REMARK   98  A    between atoms: _234  and  _236
REMARK   99  A    between atoms: _236  and  _237
REMARK  100  A    between atoms: _236  and  _239
REMARK  101  A    between atoms: _239  and  _240
REMARK  102  A    between atoms: _242  and  _244
REMARK  103  A    between atoms: _244  and  _245
REMARK  104  A    between atoms: _244  and  _247
REMARK  105  A    between atoms: _249  and  _251
REMARK  106  A    between atoms: _251  and  _252
REMARK  107  A    between atoms: _251  and  _254
REMARK  108  A    between atoms: _254  and  _255
REMARK  109  A    between atoms: _257  and  _259
REMARK  110  A    between atoms: _259  and  _260
REMARK  111  A    between atoms: _259  and  _262
REMARK  112  A    between atoms: _262  and  _263
REMARK  113  A    between atoms: _265  and  _267
REMARK  114  A    between atoms: _267  and  _268
REMARK  115  A    between atoms: _267  and  _270
REMARK  116  A    between atoms: _270  and  _271
REMARK  117  A    between atoms: _276  and  _278
REMARK  118  A    between atoms: _278  and  _279
REMARK  119  A    between atoms: _278  and  _281
REMARK  120  A    between atoms: _281  and  _282
REMARK  121  A    between atoms: _287  and  _288
REMARK  122  A    between atoms: _290  and  _292
REMARK  123  A    between atoms: _292  and  _293
REMARK  124  A    between atoms: _292  and  _295
REMARK  125  A    between atoms: _295  and  _296
REMARK  126  A    between atoms: _299  and  _301
REMARK  127  A    between atoms: _301  and  _302
REMARK  128  A    between atoms: _301  and  _304
REMARK  129  A    between atoms: _304  and  _305
REMARK  130  A    between atoms: _308  and  _310
REMARK  131  A    between atoms: _310  and  _311
REMARK  132  A    between atoms: _310  and  _313
REMARK  133  A    between atoms: _313  and  _314
REMARK  134  A    between atoms: _314  and  _315
REMARK  135  A    between atoms: _315  and  _316
REMARK  136  A    between atoms: _326  and  _327
REMARK  137  A    between atoms: _332  and  _334
REMARK  138  A    between atoms: _334  and  _335
REMARK  139  A    between atoms: _334  and  _337
REMARK  140  A    between atoms: _337  and  _338
REMARK  141  A    between atoms: _338  and  _339
REMARK  142  A    between atoms: _339  and  _340
REMARK  143  A    between atoms: _349  and  _351
REMARK  144  A    between atoms: _351  and  _352
REMARK  145  A    between atoms: _351  and  _354
REMARK  146  A    between atoms: _354  and  _355
REMARK  147  A    between atoms: _355  and  _356
REMARK  148  A    between atoms: _359  and  _361
REMARK  149  A    between atoms: _361  and  _362
REMARK  150  A    between atoms: _361  and  _364
REMARK  151  A    between atoms: _364  and  _365
REMARK  152  A    between atoms: _368  and  _370
REMARK  153  A    between atoms: _370  and  _371
REMARK  154  A    between atoms: _370  and  _373
REMARK  155  A    between atoms: _373  and  _374
REMARK  156  A    between atoms: _379  and  _381
REMARK  157  A    between atoms: _381  and  _382
REMARK  158  A    between atoms: _381  and  _384
REMARK  159  A    between atoms: _384  and  _385
REMARK  160  A    between atoms: _387  and  _389
REMARK  161  A    between atoms: _389  and  _390
REMARK  162  A    between atoms: _389  and  _392
REMARK  163  A    between atoms: _392  and  _393
REMARK  164  A    between atoms: _403  and  _405
REMARK  165  A    between atoms: _405  and  _406
REMARK  166  A    between atoms: _405  and  _408
REMARK  167  A    between atoms: _408  and  _409
REMARK  168  A    between atoms: _412  and  _414
REMARK  169  A    between atoms: _414  and  _415
REMARK  170  A    between atoms: _417  and  _419
REMARK  171  A    between atoms: _419  and  _420
REMARK  172  A    between atoms: _419  and  _422
REMARK  173  A    between atoms: _422  and  _423
REMARK  174  A    between atoms: _428  and  _430
REMARK  175  A    between atoms: _430  and  _431
REMARK  176  A    between atoms: _430  and  _433
REMARK  177  A    between atoms: _433  and  _434
REMARK  178  A    between atoms: _437  and  _439
REMARK  179  A    between atoms: _439  and  _440
REMARK  180  A    between atoms: _439  and  _442
REMARK  181  A    between atoms: _442  and  _443
REMARK  182  A    between atoms: _446  and  _448
REMARK  183  A    between atoms: _448  and  _449
REMARK  184  A    between atoms: _448  and  _451
REMARK  185  A    between atoms: _451  and  _452
REMARK  186  A    between atoms: _452  and  _453
REMARK  187  A    between atoms: _455  and  _457
REMARK  188  A    between atoms: _457  and  _458
REMARK  189  A    between atoms: _457  and  _460
REMARK  190  A    between atoms: _460  and  _461
REMARK  191  A    between atoms: _466  and  _467
REMARK  192  A    between atoms: _469  and  _471
REMARK  193  A    between atoms: _471  and  _472
REMARK  194  A    between atoms: _476  and  _477
REMARK  195  A    between atoms: _482  and  _484
REMARK  196  A    between atoms: _484  and  _485
REMARK  197  A    between atoms: _484  and  _487
REMARK  198  A    between atoms: _487  and  _488
REMARK  199  A    between atoms: _491  and  _493
REMARK  200  A    between atoms: _493  and  _494
REMARK  201  A    between atoms: _493  and  _496
REMARK  202  A    between atoms: _496  and  _497
REMARK  203  A    between atoms: _507  and  _509
REMARK  204  A    between atoms: _509  and  _510
REMARK  205  A    between atoms: _509  and  _512
REMARK  206  A    between atoms: _514  and  _516
REMARK  207  A    between atoms: _516  and  _517
REMARK  208  A    between atoms: _516  and  _519
REMARK  209  A    between atoms: _519  and  _520
REMARK  210  A    between atoms: _520  and  _521
REMARK  211  A    between atoms: _526  and  _528
REMARK  212  A    between atoms: _528  and  _529
REMARK  213  A    between atoms: _528  and  _531
REMARK  214  A    between atoms: _531  and  _532
REMARK  215  A    between atoms: _535  and  _537
REMARK  216  A    between atoms: _537  and  _538
REMARK  217  A    between atoms: _537  and  _540
REMARK  218  A    between atoms: _540  and  _541
REMARK  219  A    between atoms: _546  and  _547
REMARK  220  A    between atoms: _549  and  _551
REMARK  221  A    between atoms: _551  and  _552
REMARK  222  A    between atoms: _554  and  _556
REMARK  223  A    between atoms: _556  and  _557
REMARK  224  A    between atoms: _560  and  _562
REMARK  225  A    between atoms: _562  and  _563
REMARK  226  A    between atoms: _562  and  _565
REMARK  227  A    between atoms: _567  and  _569
REMARK  228  A    between atoms: _569  and  _570
REMARK  229  A    between atoms: _569  and  _572
REMARK  230  A    between atoms: _572  and  _573
REMARK  231  A    between atoms: _578  and  _579
REMARK  232  A    between atoms: _581  and  _583
REMARK  233  A    between atoms: _583  and  _584
REMARK  234  A    between atoms: _583  and  _586
REMARK  235  A    between atoms: _586  and  _587
REMARK  236  A    between atoms: _590  and  _592
REMARK  237  A    between atoms: _592  and  _593
REMARK  238  A    between atoms: _592  and  _595
REMARK  239  A    between atoms: _595  and  _596
REMARK  240  A    between atoms: _601  and  _603
REMARK  241  A    between atoms: _603  and  _604
REMARK  242  A    between atoms: _603  and  _606
REMARK  243  A    between atoms: _606  and  _607
REMARK  244  A    between atoms: _617  and  _619
REMARK  245  A    between atoms: _619  and  _620
REMARK  246  A    between atoms: _619  and  _622
REMARK  247  A    between atoms: _622  and  _623
REMARK  248  A    between atoms: _629  and  _631
REMARK  249  A    between atoms: _631  and  _632
REMARK  250  A    between atoms: _635  and  _637
REMARK  251  A    between atoms: _637  and  _638
REMARK  252  A    between atoms: _640  and  _642
REMARK  253  A    between atoms: _642  and  _643
REMARK  254  A    between atoms: _642  and  _645
REMARK  255  A    between atoms: _645  and  _646
REMARK  256  A    between atoms: _651  and  _652
REMARK  257  A    between atoms: _654  and  _656
REMARK  258  A    between atoms: _656  and  _657
REMARK  259  A    between atoms: _656  and  _659
REMARK  260  A    between atoms: _659  and  _660
REMARK  261  A    between atoms: _662  and  _664
REMARK  262  A    between atoms: _664  and  _665
REMARK                            x       y       z     vdW  Elec       q    Type
REMARK                         _______ _______ _______ _____ _____    ______ ____
ROOT
ATOM      1  O   HOH     1     -24.330  -1.545  28.739  0.00  0.00    +0.000 OA
ENDROOT
TORSDOF 0
REMARK  Name = ../refined-set-2016/3hky/3hky_pocket.pdb
REMARK  262 active torsions:
REMARK  status: ('A' for Active; 'I' for Inactive)
REMARK    1  A    between atoms: _1  and  _3
REMARK    2  A    between atoms: _3  and  _4
REMARK    3  A    between atoms: _3  and  _6
REMARK    4  A    between atoms: _6  and  _7
REMARK    5  A    between atoms: _7  and  _8
REMARK    6  A    between atoms: _8  and  _9
REMARK    7  A    between atoms: _9  and  _10
REMARK    8  A    between atoms: _14  and  _16
REMARK    9  A    between atoms: _16  and  _17
REMARK   10  A    between atoms: _16  and  _19
REMARK   11  A    between atoms: _19  and  _20
REMARK   12  A    between atoms: _20  and  _21
REMARK   13  A    between atoms: _24  and  _26
REMARK   14  A    between atoms: _26  and  _27
REMARK   15  A    between atoms: _26  and  _29
REMARK   16  A    between atoms: _29  and  _30
REMARK   17  A    between atoms: _30  and  _31
REMARK   18  A    between atoms: _31  and  _32
REMARK   19  A    between atoms: _41  and  _43
REMARK   20  A    between atoms: _43  and  _44
REMARK   21  A    between atoms: _46  and  _48
REMARK   22  A    between atoms: _48  and  _49
REMARK   23  A    between atoms: _48  and  _51
REMARK   24  A    between atoms: _51  and  _52
REMARK   25  A    between atoms: _58  and  _60
REMARK   26  A    between atoms: _60  and  _61
REMARK   27  A    between atoms: _60  and  _63
REMARK   28  A    between atoms: _63  and  _64
REMARK   29  A    between atoms: _69  and  _70
REMARK   30  A    between atoms: _72  and  _74
REMARK   31  A    between atoms: _74  and  _75
REMARK   32  A    between atoms: _74  and  _77
REMARK   33  A    between atoms: _77  and  _78
REMARK   34  A    between atoms: _81  and  _82
REMARK   35  A    between atoms: _87  and  _89
REMARK   36  A    between atoms: _89  and  _90
REMARK   37  A    between atoms: _89  and  _92
REMARK   38  A    between atoms: _92  and  _93
REMARK   39  A    between atoms: _93  and  _94
REMARK   40  A    between atoms: _94  and  _95
REMARK   41  A    between atoms: _95  and  _96
REMARK   42  A    between atoms: _100  and  _102
REMARK   43  A    between atoms: _102  and  _103
REMARK   44  A    between atoms: _102  and  _105
REMARK   45  A    between atoms: _105  and  _106
REMARK   46  A    between atoms: _106  and  _107
REMARK   47  A    between atoms: _112  and  _114
REMARK   48  A    between atoms: _114  and  _115
REMARK   49  A    between atoms: _114  and  _117
REMARK   50  A    between atoms: _117  and  _118
REMARK   51  A    between atoms: _118  and  _119
REMARK   52  A    between atoms: _119  and  _120
REMARK   53  A    between atoms: _129  and  _131
REMARK   54  A    between atoms: _131  and  _132
REMARK   55  A    between atoms: _131  and  _134
REMARK   56  A    between atoms: _137  and  _139
REMARK   57  A    between atoms: _139  and  _140
REMARK   58  A    between atoms: _139  and  _142
REMARK   59  A    between atoms: _142  and  _143
REMARK   60  A    between atoms: _146  and  _148
REMARK   61  A    between atoms: _148  and  _149
REMARK   62  A    between atoms: _148  and  _151
REMARK   63  A    between atoms: _151  and  _152
REMARK   64  A    between atoms: _155  and  _157
REMARK   65  A    between atoms: _157  and  _158
REMARK   66  A    between atoms: _157  and  _160
REMARK   67  A    between atoms: _160  and  _161
REMARK   68  A    between atoms: _163  and  _165
REMARK   69  A    between atoms: _165  and  _166
REMARK   70  A    between atoms: _165  and  _168
REMARK   71  A    between atoms: _168  and  _169
REMARK   72  A    between atoms: _172  and  _174
REMARK   73  A    between atoms: _174  and  _175
REMARK   74  A    between atoms: _174  and  _177
REMARK   75  A    between atoms: _177  and  _178
REMARK   76  A    between atoms: _180  and  _182
REMARK   77  A    between atoms: _182  and  _183
REMARK   78  A    between atoms: _182  and  _185
REMARK   79  A    between atoms: _185  and  _186
REMARK   80  A    between atoms: _191  and  _193
REMARK   81  A    between atoms: _193  and  _194
REMARK   82  A    between atoms: _193  and  _196
REMARK   83  A    between atoms: _196  and  _197
REMARK   84  A    between atoms: _200  and  _202
REMARK   85  A    between atoms: _202  and  _203
REMARK   86  A    between atoms: _202  and  _205
REMARK   87  A    between atoms: _205  and  _206
REMARK   88  A    between atoms: _211  and  _213
REMARK   89  A    between atoms: _213  and  _214
REMARK   90  A    between atoms: _216  and  _218
REMARK   91  A    between atoms: _218  and  _219
REMARK   92  A    between atoms: _218  and  _221
REMARK   93  A    between atoms: _221  and  _222
REMARK   94  A    between atoms: _225  and  _227
REMARK   95  A    between atoms: _227  and  _228
REMARK   96  A    between atoms: _227  and  _230
REMARK   97  A    between atoms: _230  and  _231
REMARK   98  A    between atoms: _234  and  _236
REMARK   99  A    between atoms: _236  and  _237
REMARK  100  A    between atoms: _236  and  _239
REMARK  101  A    between atoms: _239  and  _240
REMARK  102  A    between atoms: _242  and  _244
REMARK  103  A    between atoms: _244  and  _245
REMARK  104  A    between atoms: _244  and  _247
REMARK  105  A    between atoms: _249  and  _251
REMARK  106  A    between atoms: _251  and  _252
REMARK  107  A    between atoms: _251  and  _254
REMARK  108  A    between atoms: _254  and  _255
REMARK  109  A    between atoms: _257  and  _259
REMARK  110  A    between atoms: _259  and  _260
REMARK  111  A    between atoms: _259  and  _262
REMARK  112  A    between atoms: _262  and  _263
REMARK  113  A    between atoms: _265  and  _267
REMARK  114  A    between atoms: _267  and  _268
REMARK  115  A    between atoms: _267  and  _270
REMARK  116  A    between atoms: _270  and  _271
REMARK  117  A    between atoms: _276  and  _278
REMARK  118  A    between atoms: _278  and  _279
REMARK  119  A    between atoms: _278  and  _281
REMARK  120  A    between atoms: _281  and  _282
REMARK  121  A    between atoms: _287  and  _288
REMARK  122  A    between atoms: _290  and  _292
REMARK  123  A    between atoms: _292  and  _293
REMARK  124  A    between atoms: _292  and  _295
REMARK  125  A    between atoms: _295  and  _296
REMARK  126  A    between atoms: _299  and  _301
REMARK  127  A    between atoms: _301  and  _302
REMARK  128  A    between atoms: _301  and  _304
REMARK  129  A    between atoms: _304  and  _305
REMARK  130  A    between atoms: _308  and  _310
REMARK  131  A    between atoms: _310  and  _311
REMARK  132  A    between atoms: _310  and  _313
REMARK  133  A    between atoms: _313  and  _314
REMARK  134  A    between atoms: _314  and  _315
REMARK  135  A    between atoms: _315  and  _316
REMARK  136  A    between atoms: _326  and  _327
REMARK  137  A    between atoms: _332  and  _334
REMARK  138  A    between atoms: _334  and  _335
REMARK  139  A    between atoms: _334  and  _337
REMARK  140  A    between atoms: _337  and  _338
REMARK  141  A    between atoms: _338  and  _339
REMARK  142  A    between atoms: _339  and  _340
REMARK  143  A    between atoms: _349  and  _351
REMARK  144  A    between atoms: _351  and  _352
REMARK  145  A    between atoms: _351  and  _354
REMARK  146  A    between atoms: _354  and  _355
REMARK  147  A    between atoms: _355  and  _356
REMARK  148  A    between atoms: _359  and  _361
REMARK  149  A    between atoms: _361  and  _362
REMARK  150  A    between atoms: _361  and  _364
REMARK  151  A    between atoms: _364  and  _365
REMARK  152  A    between atoms: _368  and  _370
REMARK  153  A    between atoms: _370  and  _371
REMARK  154  A    between atoms: _370  and  _373
REMARK  155  A    between atoms: _373  and  _374
REMARK  156  A    between atoms: _379  and  _381
REMARK  157  A    between atoms: _381  and  _382
REMARK  158  A    between atoms: _381  and  _384
REMARK  159  A    between atoms: _384  and  _385
REMARK  160  A    between atoms: _387  and  _389
REMARK  161  A    between atoms: _389  and  _390
REMARK  162  A    between atoms: _389  and  _392
REMARK  163  A    between atoms: _392  and  _393
REMARK  164  A    between atoms: _403  and  _405
REMARK  165  A    between atoms: _405  and  _406
REMARK  166  A    between atoms: _405  and  _408
REMARK  167  A    between atoms: _408  and  _409
REMARK  168  A    between atoms: _412  and  _414
REMARK  169  A    between atoms: _414  and  _415
REMARK  170  A    between atoms: _417  and  _419
REMARK  171  A    between atoms: _419  and  _420
REMARK  172  A    between atoms: _419  and  _422
REMARK  173  A    between atoms: _422  and  _423
REMARK  174  A    between atoms: _428  and  _430
REMARK  175  A    between atoms: _430  and  _431
REMARK  176  A    between atoms: _430  and  _433
REMARK  177  A    between atoms: _433  and  _434
REMARK  178  A    between atoms: _437  and  _439
REMARK  179  A    between atoms: _439  and  _440
REMARK  180  A    between atoms: _439  and  _442
REMARK  181  A    between atoms: _442  and  _443
REMARK  182  A    between atoms: _446  and  _448
REMARK  183  A    between atoms: _448  and  _449
REMARK  184  A    between atoms: _448  and  _451
REMARK  185  A    between atoms: _451  and  _452
REMARK  186  A    between atoms: _452  and  _453
REMARK  187  A    between atoms: _455  and  _457
REMARK  188  A    between atoms: _457  and  _458
REMARK  189  A    between atoms: _457  and  _460
REMARK  190  A    between atoms: _460  and  _461
REMARK  191  A    between atoms: _466  and  _467
REMARK  192  A    between atoms: _469  and  _471
REMARK  193  A    between atoms: _471  and  _472
REMARK  194  A    between atoms: _476  and  _477
REMARK  195  A    between atoms: _482  and  _484
REMARK  196  A    between atoms: _484  and  _485
REMARK  197  A    between atoms: _484  and  _487
REMARK  198  A    between atoms: _487  and  _488
REMARK  199  A    between atoms: _491  and  _493
REMARK  200  A    between atoms: _493  and  _494
REMARK  201  A    between atoms: _493  and  _496
REMARK  202  A    between atoms: _496  and  _497
REMARK  203  A    between atoms: _507  and  _509
REMARK  204  A    between atoms: _509  and  _510
REMARK  205  A    between atoms: _509  and  _512
REMARK  206  A    between atoms: _514  and  _516
REMARK  207  A    between atoms: _516  and  _517
REMARK  208  A    between atoms: _516  and  _519
REMARK  209  A    between atoms: _519  and  _520
REMARK  210  A    between atoms: _520  and  _521
REMARK  211  A    between atoms: _526  and  _528
REMARK  212  A    between atoms: _528  and  _529
REMARK  213  A    between atoms: _528  and  _531
REMARK  214  A    between atoms: _531  and  _532
REMARK  215  A    between atoms: _535  and  _537
REMARK  216  A    between atoms: _537  and  _538
REMARK  217  A    between atoms: _537  and  _540
REMARK  218  A    between atoms: _540  and  _541
REMARK  219  A    between atoms: _546  and  _547
REMARK  220  A    between atoms: _549  and  _551
REMARK  221  A    between atoms: _551  and  _552
REMARK  222  A    between atoms: _554  and  _556
REMARK  223  A    between atoms: _556  and  _557
REMARK  224  A    between atoms: _560  and  _562
REMARK  225  A    between atoms: _562  and  _563
REMARK  226  A    between atoms: _562  and  _565
REMARK  227  A    between atoms: _567  and  _569
REMARK  228  A    between atoms: _569  and  _570
REMARK  229  A    between atoms: _569  and  _572
REMARK  230  A    between atoms: _572  and  _573
REMARK  231  A    between atoms: _578  and  _579
REMARK  232  A    between atoms: _581  and  _583
REMARK  233  A    between atoms: _583  and  _584
REMARK  234  A    between atoms: _583  and  _586
REMARK  235  A    between atoms: _586  and  _587
REMARK  236  A    between atoms: _590  and  _592
REMARK  237  A    between atoms: _592  and  _593
REMARK  238  A    between atoms: _592  and  _595
REMARK  239  A    between atoms: _595  and  _596
REMARK  240  A    between atoms: _601  and  _603
REMARK  241  A    between atoms: _603  and  _604
REMARK  242  A    between atoms: _603  and  _606
REMARK  243  A    between atoms: _606  and  _607
REMARK  244  A    between atoms: _617  and  _619
REMARK  245  A    between atoms: _619  and  _620
REMARK  246  A    between atoms: _619  and  _622
REMARK  247  A    between atoms: _622  and  _623
REMARK  248  A    between atoms: _629  and  _631
REMARK  249  A    between atoms: _631  and  _632
REMARK  250  A    between atoms: _635  and  _637
REMARK  251  A    between atoms: _637  and  _638
REMARK  252  A    between atoms: _640  and  _642
REMARK  253  A    between atoms: _642  and  _643
REMARK  254  A    between atoms: _642  and  _645
REMARK  255  A    between atoms: _645  and  _646
REMARK  256  A    between atoms: _651  and  _652
REMARK  257  A    between atoms: _654  and  _656
REMARK  258  A    between atoms: _656  and  _657
REMARK  259  A    between atoms: _656  and  _659
REMARK  260  A    between atoms: _659  and  _660
REMARK  261  A    between atoms: _662  and  _664
REMARK  262  A    between atoms: _664  and  _665
REMARK                            x       y       z     vdW  Elec       q    Type
REMARK                         _______ _______ _______ _____ _____    ______ ____
ROOT
ATOM      1  O   HOH     1     -20.174   0.392  27.964  0.00  0.00    +0.000 OA
ENDROOT
TORSDOF 0
REMARK  Name = ../refined-set-2016/3hky/3hky_pocket.pdb
REMARK  262 active torsions:
REMARK  status: ('A' for Active; 'I' for Inactive)
REMARK    1  A    between atoms: _1  and  _3
REMARK    2  A    between atoms: _3  and  _4
REMARK    3  A    between atoms: _3  and  _6
REMARK    4  A    between atoms: _6  and  _7
REMARK    5  A    between atoms: _7  and  _8
REMARK    6  A    between atoms: _8  and  _9
REMARK    7  A    between atoms: _9  and  _10
REMARK    8  A    between atoms: _14  and  _16
REMARK    9  A    between atoms: _16  and  _17
REMARK   10  A    between atoms: _16  and  _19
REMARK   11  A    between atoms: _19  and  _20
REMARK   12  A    between atoms: _20  and  _21
REMARK   13  A    between atoms: _24  and  _26
REMARK   14  A    between atoms: _26  and  _27
REMARK   15  A    between atoms: _26  and  _29
REMARK   16  A    between atoms: _29  and  _30
REMARK   17  A    between atoms: _30  and  _31
REMARK   18  A    between atoms: _31  and  _32
REMARK   19  A    between atoms: _41  and  _43
REMARK   20  A    between atoms: _43  and  _44
REMARK   21  A    between atoms: _46  and  _48
REMARK   22  A    between atoms: _48  and  _49
REMARK   23  A    between atoms: _48  and  _51
REMARK   24  A    between atoms: _51  and  _52
REMARK   25  A    between atoms: _58  and  _60
REMARK   26  A    between atoms: _60  and  _61
REMARK   27  A    between atoms: _60  and  _63
REMARK   28  A    between atoms: _63  and  _64
REMARK   29  A    between atoms: _69  and  _70
REMARK   30  A    between atoms: _72  and  _74
REMARK   31  A    between atoms: _74  and  _75
REMARK   32  A    between atoms: _74  and  _77
REMARK   33  A    between atoms: _77  and  _78
REMARK   34  A    between atoms: _81  and  _82
REMARK   35  A    between atoms: _87  and  _89
REMARK   36  A    between atoms: _89  and  _90
REMARK   37  A    between atoms: _89  and  _92
REMARK   38  A    between atoms: _92  and  _93
REMARK   39  A    between atoms: _93  and  _94
REMARK   40  A    between atoms: _94  and  _95
REMARK   41  A    between atoms: _95  and  _96
REMARK   42  A    between atoms: _100  and  _102
REMARK   43  A    between atoms: _102  and  _103
REMARK   44  A    between atoms: _102  and  _105
REMARK   45  A    between atoms: _105  and  _106
REMARK   46  A    between atoms: _106  and  _107
REMARK   47  A    between atoms: _112  and  _114
REMARK   48  A    between atoms: _114  and  _115
REMARK   49  A    between atoms: _114  and  _117
REMARK   50  A    between atoms: _117  and  _118
REMARK   51  A    between atoms: _118  and  _119
REMARK   52  A    between atoms: _119  and  _120
REMARK   53  A    between atoms: _129  and  _131
REMARK   54  A    between atoms: _131  and  _132
REMARK   55  A    between atoms: _131  and  _134
REMARK   56  A    between atoms: _137  and  _139
REMARK   57  A    between atoms: _139  and  _140
REMARK   58  A    between atoms: _139  and  _142
REMARK   59  A    between atoms: _142  and  _143
REMARK   60  A    between atoms: _146  and  _148
REMARK   61  A    between atoms: _148  and  _149
REMARK   62  A    between atoms: _148  and  _151
REMARK   63  A    between atoms: _151  and  _152
REMARK   64  A    between atoms: _155  and  _157
REMARK   65  A    between atoms: _157  and  _158
REMARK   66  A    between atoms: _157  and  _160
REMARK   67  A    between atoms: _160  and  _161
REMARK   68  A    between atoms: _163  and  _165
REMARK   69  A    between atoms: _165  and  _166
REMARK   70  A    between atoms: _165  and  _168
REMARK   71  A    between atoms: _168  and  _169
REMARK   72  A    between atoms: _172  and  _174
REMARK   73  A    between atoms: _174  and  _175
REMARK   74  A    between atoms: _174  and  _177
REMARK   75  A    between atoms: _177  and  _178
REMARK   76  A    between atoms: _180  and  _182
REMARK   77  A    between atoms: _182  and  _183
REMARK   78  A    between atoms: _182  and  _185
REMARK   79  A    between atoms: _185  and  _186
REMARK   80  A    between atoms: _191  and  _193
REMARK   81  A    between atoms: _193  and  _194
REMARK   82  A    between atoms: _193  and  _196
REMARK   83  A    between atoms: _196  and  _197
REMARK   84  A    between atoms: _200  and  _202
REMARK   85  A    between atoms: _202  and  _203
REMARK   86  A    between atoms: _202  and  _205
REMARK   87  A    between atoms: _205  and  _206
REMARK   88  A    between atoms: _211  and  _213
REMARK   89  A    between atoms: _213  and  _214
REMARK   90  A    between atoms: _216  and  _218
REMARK   91  A    between atoms: _218  and  _219
REMARK   92  A    between atoms: _218  and  _221
REMARK   93  A    between atoms: _221  and  _222
REMARK   94  A    between atoms: _225  and  _227
REMARK   95  A    between atoms: _227  and  _228
REMARK   96  A    between atoms: _227  and  _230
REMARK   97  A    between atoms: _230  and  _231
REMARK   98  A    between atoms: _234  and  _236
REMARK   99  A    between atoms: _236  and  _237
REMARK  100  A    between atoms: _236  and  _239
REMARK  101  A    between atoms: _239  and  _240
REMARK  102  A    between atoms: _242  and  _244
REMARK  103  A    between atoms: _244  and  _245
REMARK  104  A    between atoms: _244  and  _247
REMARK  105  A    between atoms: _249  and  _251
REMARK  106  A    between atoms: _251  and  _252
REMARK  107  A    between atoms: _251  and  _254
REMARK  108  A    between atoms: _254  and  _255
REMARK  109  A    between atoms: _257  and  _259
REMARK  110  A    between atoms: _259  and  _260
REMARK  111  A    between atoms: _259  and  _262
REMARK  112  A    between atoms: _262  and  _263
REMARK  113  A    between atoms: _265  and  _267
REMARK  114  A    between atoms: _267  and  _268
REMARK  115  A    between atoms: _267  and  _270
REMARK  116  A    between atoms: _270  and  _271
REMARK  117  A    between atoms: _276  and  _278
REMARK  118  A    between atoms: _278  and  _279
REMARK  119  A    between atoms: _278  and  _281
REMARK  120  A    between atoms: _281  and  _282
REMARK  121  A    between atoms: _287  and  _288
REMARK  122  A    between atoms: _290  and  _292
REMARK  123  A    between atoms: _292  and  _293
REMARK  124  A    between atoms: _292  and  _295
REMARK  125  A    between atoms: _295  and  _296
REMARK  126  A    between atoms: _299  and  _301
REMARK  127  A    between atoms: _301  and  _302
REMARK  128  A    between atoms: _301  and  _304
REMARK  129  A    between atoms: _304  and  _305
REMARK  130  A    between atoms: _308  and  _310
REMARK  131  A    between atoms: _310  and  _311
REMARK  132  A    between atoms: _310  and  _313
REMARK  133  A    between atoms: _313  and  _314
REMARK  134  A    between atoms: _314  and  _315
REMARK  135  A    between atoms: _315  and  _316
REMARK  136  A    between atoms: _326  and  _327
REMARK  137  A    between atoms: _332  and  _334
REMARK  138  A    between atoms: _334  and  _335
REMARK  139  A    between atoms: _334  and  _337
REMARK  140  A    between atoms: _337  and  _338
REMARK  141  A    between atoms: _338  and  _339
REMARK  142  A    between atoms: _339  and  _340
REMARK  143  A    between atoms: _349  and  _351
REMARK  144  A    between atoms: _351  and  _352
REMARK  145  A    between atoms: _351  and  _354
REMARK  146  A    between atoms: _354  and  _355
REMARK  147  A    between atoms: _355  and  _356
REMARK  148  A    between atoms: _359  and  _361
REMARK  149  A    between atoms: _361  and  _362
REMARK  150  A    between atoms: _361  and  _364
REMARK  151  A    between atoms: _364  and  _365
REMARK  152  A    between atoms: _368  and  _370
REMARK  153  A    between atoms: _370  and  _371
REMARK  154  A    between atoms: _370  and  _373
REMARK  155  A    between atoms: _373  and  _374
REMARK  156  A    between atoms: _379  and  _381
REMARK  157  A    between atoms: _381  and  _382
REMARK  158  A    between atoms: _381  and  _384
REMARK  159  A    between atoms: _384  and  _385
REMARK  160  A    between atoms: _387  and  _389
REMARK  161  A    between atoms: _389  and  _390
REMARK  162  A    between atoms: _389  and  _392
REMARK  163  A    between atoms: _392  and  _393
REMARK  164  A    between atoms: _403  and  _405
REMARK  165  A    between atoms: _405  and  _406
REMARK  166  A    between atoms: _405  and  _408
REMARK  167  A    between atoms: _408  and  _409
REMARK  168  A    between atoms: _412  and  _414
REMARK  169  A    between atoms: _414  and  _415
REMARK  170  A    between atoms: _417  and  _419
REMARK  171  A    between atoms: _419  and  _420
REMARK  172  A    between atoms: _419  and  _422
REMARK  173  A    between atoms: _422  and  _423
REMARK  174  A    between atoms: _428  and  _430
REMARK  175  A    between atoms: _430  and  _431
REMARK  176  A    between atoms: _430  and  _433
REMARK  177  A    between atoms: _433  and  _434
REMARK  178  A    between atoms: _437  and  _439
REMARK  179  A    between atoms: _439  and  _440
REMARK  180  A    between atoms: _439  and  _442
REMARK  181  A    between atoms: _442  and  _443
REMARK  182  A    between atoms: _446  and  _448
REMARK  183  A    between atoms: _448  and  _449
REMARK  184  A    between atoms: _448  and  _451
REMARK  185  A    between atoms: _451  and  _452
REMARK  186  A    between atoms: _452  and  _453
REMARK  187  A    between atoms: _455  and  _457
REMARK  188  A    between atoms: _457  and  _458
REMARK  189  A    between atoms: _457  and  _460
REMARK  190  A    between atoms: _460  and  _461
REMARK  191  A    between atoms: _466  and  _467
REMARK  192  A    between atoms: _469  and  _471
REMARK  193  A    between atoms: _471  and  _472
REMARK  194  A    between atoms: _476  and  _477
REMARK  195  A    between atoms: _482  and  _484
REMARK  196  A    between atoms: _484  and  _485
REMARK  197  A    between atoms: _484  and  _487
REMARK  198  A    between atoms: _487  and  _488
REMARK  199  A    between atoms: _491  and  _493
REMARK  200  A    between atoms: _493  and  _494
REMARK  201  A    between atoms: _493  and  _496
REMARK  202  A    between atoms: _496  and  _497
REMARK  203  A    between atoms: _507  and  _509
REMARK  204  A    between atoms: _509  and  _510
REMARK  205  A    between atoms: _509  and  _512
REMARK  206  A    between atoms: _514  and  _516
REMARK  207  A    between atoms: _516  and  _517
REMARK  208  A    between atoms: _516  and  _519
REMARK  209  A    between atoms: _519  and  _520
REMARK  210  A    between atoms: _520  and  _521
REMARK  211  A    between atoms: _526  and  _528
REMARK  212  A    between atoms: _528  and  _529
REMARK  213  A    between atoms: _528  and  _531
REMARK  214  A    between atoms: _531  and  _532
REMARK  215  A    between atoms: _535  and  _537
REMARK  216  A    between atoms: _537  and  _538
REMARK  217  A    between atoms: _537  and  _540
REMARK  218  A    between atoms: _540  and  _541
REMARK  219  A    between atoms: _546  and  _547
REMARK  220  A    between atoms: _549  and  _551
REMARK  221  A    between atoms: _551  and  _552
REMARK  222  A    between atoms: _554  and  _556
REMARK  223  A    between atoms: _556  and  _557
REMARK  224  A    between atoms: _560  and  _562
REMARK  225  A    between atoms: _562  and  _563
REMARK  226  A    between atoms: _562  and  _565
REMARK  227  A    between atoms: _567  and  _569
REMARK  228  A    between atoms: _569  and  _570
REMARK  229  A    between atoms: _569  and  _572
REMARK  230  A    between atoms: _572  and  _573
REMARK  231  A    between atoms: _578  and  _579
REMARK  232  A    between atoms: _581  and  _583
REMARK  233  A    between atoms: _583  and  _584
REMARK  234  A    between atoms: _583  and  _586
REMARK  235  A    between atoms: _586  and  _587
REMARK  236  A    between atoms: _590  and  _592
REMARK  237  A    between atoms: _592  and  _593
REMARK  238  A    between atoms: _592  and  _595
REMARK  239  A    between atoms: _595  and  _596
REMARK  240  A    between atoms: _601  and  _603
REMARK  241  A    between atoms: _603  and  _604
REMARK  242  A    between atoms: _603  and  _606
REMARK  243  A    between atoms: _606  and  _607
REMARK  244  A    between atoms: _617  and  _619
REMARK  245  A    between atoms: _619  and  _620
REMARK  246  A    between atoms: _619  and  _622
REMARK  247  A    between atoms: _622  and  _623
REMARK  248  A    between atoms: _629  and  _631
REMARK  249  A    between atoms: _631  and  _632
REMARK  250  A    between atoms: _635  and  _637
REMARK  251  A    between atoms: _637  and  _638
REMARK  252  A    between atoms: _640  and  _642
REMARK  253  A    between atoms: _642  and  _643
REMARK  254  A    between atoms: _642  and  _645
REMARK  255  A    between atoms: _645  and  _646
REMARK  256  A    between atoms: _651  and  _652
REMARK  257  A    between atoms: _654  and  _656
REMARK  258  A    between atoms: _656  and  _657
REMARK  259  A    between atoms: _656  and  _659
REMARK  260  A    between atoms: _659  and  _660
REMARK  261  A    between atoms: _662  and  _664
REMARK  262  A    between atoms: _664  and  _665
REMARK                            x       y       z     vdW  Elec       q    Type
REMARK                         _______ _______ _______ _____ _____    ______ ____
ROOT
ATOM      1  O   HOH     1     -23.516  -8.785  20.486  0.00  0.00    +0.000 OA
ENDROOT
TORSDOF 0
REMARK  Name = ../refined-set-2016/3hky/3hky_pocket.pdb
REMARK  262 active torsions:
REMARK  status: ('A' for Active; 'I' for Inactive)
REMARK    1  A    between atoms: _1  and  _3
REMARK    2  A    between atoms: _3  and  _4
REMARK    3  A    between atoms: _3  and  _6
REMARK    4  A    between atoms: _6  and  _7
REMARK    5  A    between atoms: _7  and  _8
REMARK    6  A    between atoms: _8  and  _9
REMARK    7  A    between atoms: _9  and  _10
REMARK    8  A    between atoms: _14  and  _16
REMARK    9  A    between atoms: _16  and  _17
REMARK   10  A    between atoms: _16  and  _19
REMARK   11  A    between atoms: _19  and  _20
REMARK   12  A    between atoms: _20  and  _21
REMARK   13  A    between atoms: _24  and  _26
REMARK   14  A    between atoms: _26  and  _27
REMARK   15  A    between atoms: _26  and  _29
REMARK   16  A    between atoms: _29  and  _30
REMARK   17  A    between atoms: _30  and  _31
REMARK   18  A    between atoms: _31  and  _32
REMARK   19  A    between atoms: _41  and  _43
REMARK   20  A    between atoms: _43  and  _44
REMARK   21  A    between atoms: _46  and  _48
REMARK   22  A    between atoms: _48  and  _49
REMARK   23  A    between atoms: _48  and  _51
REMARK   24  A    between atoms: _51  and  _52
REMARK   25  A    between atoms: _58  and  _60
REMARK   26  A    between atoms: _60  and  _61
REMARK   27  A    between atoms: _60  and  _63
REMARK   28  A    between atoms: _63  and  _64
REMARK   29  A    between atoms: _69  and  _70
REMARK   30  A    between atoms: _72  and  _74
REMARK   31  A    between atoms: _74  and  _75
REMARK   32  A    between atoms: _74  and  _77
REMARK   33  A    between atoms: _77  and  _78
REMARK   34  A    between atoms: _81  and  _82
REMARK   35  A    between atoms: _87  and  _89
REMARK   36  A    between atoms: _89  and  _90
REMARK   37  A    between atoms: _89  and  _92
REMARK   38  A    between atoms: _92  and  _93
REMARK   39  A    between atoms: _93  and  _94
REMARK   40  A    between atoms: _94  and  _95
REMARK   41  A    between atoms: _95  and  _96
REMARK   42  A    between atoms: _100  and  _102
REMARK   43  A    between atoms: _102  and  _103
REMARK   44  A    between atoms: _102  and  _105
REMARK   45  A    between atoms: _105  and  _106
REMARK   46  A    between atoms: _106  and  _107
REMARK   47  A    between atoms: _112  and  _114
REMARK   48  A    between atoms: _114  and  _115
REMARK   49  A    between atoms: _114  and  _117
REMARK   50  A    between atoms: _117  and  _118
REMARK   51  A    between atoms: _118  and  _119
REMARK   52  A    between atoms: _119  and  _120
REMARK   53  A    between atoms: _129  and  _131
REMARK   54  A    between atoms: _131  and  _132
REMARK   55  A    between atoms: _131  and  _134
REMARK   56  A    between atoms: _137  and  _139
REMARK   57  A    between atoms: _139  and  _140
REMARK   58  A    between atoms: _139  and  _142
REMARK   59  A    between atoms: _142  and  _143
REMARK   60  A    between atoms: _146  and  _148
REMARK   61  A    between atoms: _148  and  _149
REMARK   62  A    between atoms: _148  and  _151
REMARK   63  A    between atoms: _151  and  _152
REMARK   64  A    between atoms: _155  and  _157
REMARK   65  A    between atoms: _157  and  _158
REMARK   66  A    between atoms: _157  and  _160
REMARK   67  A    between atoms: _160  and  _161
REMARK   68  A    between atoms: _163  and  _165
REMARK   69  A    between atoms: _165  and  _166
REMARK   70  A    between atoms: _165  and  _168
REMARK   71  A    between atoms: _168  and  _169
REMARK   72  A    between atoms: _172  and  _174
REMARK   73  A    between atoms: _174  and  _175
REMARK   74  A    between atoms: _174  and  _177
REMARK   75  A    between atoms: _177  and  _178
REMARK   76  A    between atoms: _180  and  _182
REMARK   77  A    between atoms: _182  and  _183
REMARK   78  A    between atoms: _182  and  _185
REMARK   79  A    between atoms: _185  and  _186
REMARK   80  A    between atoms: _191  and  _193
REMARK   81  A    between atoms: _193  and  _194
REMARK   82  A    between atoms: _193  and  _196
REMARK   83  A    between atoms: _196  and  _197
REMARK   84  A    between atoms: _200  and  _202
REMARK   85  A    between atoms: _202  and  _203
REMARK   86  A    between atoms: _202  and  _205
REMARK   87  A    between atoms: _205  and  _206
REMARK   88  A    between atoms: _211  and  _213
REMARK   89  A    between atoms: _213  and  _214
REMARK   90  A    between atoms: _216  and  _218
REMARK   91  A    between atoms: _218  and  _219
REMARK   92  A    between atoms: _218  and  _221
REMARK   93  A    between atoms: _221  and  _222
REMARK   94  A    between atoms: _225  and  _227
REMARK   95  A    between atoms: _227  and  _228
REMARK   96  A    between atoms: _227  and  _230
REMARK   97  A    between atoms: _230  and  _231
REMARK   98  A    between atoms: _234  and  _236
REMARK   99  A    between atoms: _236  and  _237
REMARK  100  A    between atoms: _236  and  _239
REMARK  101  A    between atoms: _239  and  _240
REMARK  102  A    between atoms: _242  and  _244
REMARK  103  A    between atoms: _244  and  _245
REMARK  104  A    between atoms: _244  and  _247
REMARK  105  A    between atoms: _249  and  _251
REMARK  106  A    between atoms: _251  and  _252
REMARK  107  A    between atoms: _251  and  _254
REMARK  108  A    between atoms: _254  and  _255
REMARK  109  A    between atoms: _257  and  _259
REMARK  110  A    between atoms: _259  and  _260
REMARK  111  A    between atoms: _259  and  _262
REMARK  112  A    between atoms: _262  and  _263
REMARK  113  A    between atoms: _265  and  _267
REMARK  114  A    between atoms: _267  and  _268
REMARK  115  A    between atoms: _267  and  _270
REMARK  116  A    between atoms: _270  and  _271
REMARK  117  A    between atoms: _276  and  _278
REMARK  118  A    between atoms: _278  and  _279
REMARK  119  A    between atoms: _278  and  _281
REMARK  120  A    between atoms: _281  and  _282
REMARK  121  A    between atoms: _287  and  _288
REMARK  122  A    between atoms: _290  and  _292
REMARK  123  A    between atoms: _292  and  _293
REMARK  124  A    between atoms: _292  and  _295
REMARK  125  A    between atoms: _295  and  _296
REMARK  126  A    between atoms: _299  and  _301
REMARK  127  A    between atoms: _301  and  _302
REMARK  128  A    between atoms: _301  and  _304
REMARK  129  A    between atoms: _304  and  _305
REMARK  130  A    between atoms: _308  and  _310
REMARK  131  A    between atoms: _310  and  _311
REMARK  132  A    between atoms: _310  and  _313
REMARK  133  A    between atoms: _313  and  _314
REMARK  134  A    between atoms: _314  and  _315
REMARK  135  A    between atoms: _315  and  _316
REMARK  136  A    between atoms: _326  and  _327
REMARK  137  A    between atoms: _332  and  _334
REMARK  138  A    between atoms: _334  and  _335
REMARK  139  A    between atoms: _334  and  _337
REMARK  140  A    between atoms: _337  and  _338
REMARK  141  A    between atoms: _338  and  _339
REMARK  142  A    between atoms: _339  and  _340
REMARK  143  A    between atoms: _349  and  _351
REMARK  144  A    between atoms: _351  and  _352
REMARK  145  A    between atoms: _351  and  _354
REMARK  146  A    between atoms: _354  and  _355
REMARK  147  A    between atoms: _355  and  _356
REMARK  148  A    between atoms: _359  and  _361
REMARK  149  A    between atoms: _361  and  _362
REMARK  150  A    between atoms: _361  and  _364
REMARK  151  A    between atoms: _364  and  _365
REMARK  152  A    between atoms: _368  and  _370
REMARK  153  A    between atoms: _370  and  _371
REMARK  154  A    between atoms: _370  and  _373
REMARK  155  A    between atoms: _373  and  _374
REMARK  156  A    between atoms: _379  and  _381
REMARK  157  A    between atoms: _381  and  _382
REMARK  158  A    between atoms: _381  and  _384
REMARK  159  A    between atoms: _384  and  _385
REMARK  160  A    between atoms: _387  and  _389
REMARK  161  A    between atoms: _389  and  _390
REMARK  162  A    between atoms: _389  and  _392
REMARK  163  A    between atoms: _392  and  _393
REMARK  164  A    between atoms: _403  and  _405
REMARK  165  A    between atoms: _405  and  _406
REMARK  166  A    between atoms: _405  and  _408
REMARK  167  A    between atoms: _408  and  _409
REMARK  168  A    between atoms: _412  and  _414
REMARK  169  A    between atoms: _414  and  _415
REMARK  170  A    between atoms: _417  and  _419
REMARK  171  A    between atoms: _419  and  _420
REMARK  172  A    between atoms: _419  and  _422
REMARK  173  A    between atoms: _422  and  _423
REMARK  174  A    between atoms: _428  and  _430
REMARK  175  A    between atoms: _430  and  _431
REMARK  176  A    between atoms: _430  and  _433
REMARK  177  A    between atoms: _433  and  _434
REMARK  178  A    between atoms: _437  and  _439
REMARK  179  A    between atoms: _439  and  _440
REMARK  180  A    between atoms: _439  and  _442
REMARK  181  A    between atoms: _442  and  _443
REMARK  182  A    between atoms: _446  and  _448
REMARK  183  A    between atoms: _448  and  _449
REMARK  184  A    between atoms: _448  and  _451
REMARK  185  A    between atoms: _451  and  _452
REMARK  186  A    between atoms: _452  and  _453
REMARK  187  A    between atoms: _455  and  _457
REMARK  188  A    between atoms: _457  and  _458
REMARK  189  A    between atoms: _457  and  _460
REMARK  190  A    between atoms: _460  and  _461
REMARK  191  A    between atoms: _466  and  _467
REMARK  192  A    between atoms: _469  and  _471
REMARK  193  A    between atoms: _471  and  _472
REMARK  194  A    between atoms: _476  and  _477
REMARK  195  A    between atoms: _482  and  _484
REMARK  196  A    between atoms: _484  and  _485
REMARK  197  A    between atoms: _484  and  _487
REMARK  198  A    between atoms: _487  and  _488
REMARK  199  A    between atoms: _491  and  _493
REMARK  200  A    between atoms: _493  and  _494
REMARK  201  A    between atoms: _493  and  _496
REMARK  202  A    between atoms: _496  and  _497
REMARK  203  A    between atoms: _507  and  _509
REMARK  204  A    between atoms: _509  and  _510
REMARK  205  A    between atoms: _509  and  _512
REMARK  206  A    between atoms: _514  and  _516
REMARK  207  A    between atoms: _516  and  _517
REMARK  208  A    between atoms: _516  and  _519
REMARK  209  A    between atoms: _519  and  _520
REMARK  210  A    between atoms: _520  and  _521
REMARK  211  A    between atoms: _526  and  _528
REMARK  212  A    between atoms: _528  and  _529
REMARK  213  A    between atoms: _528  and  _531
REMARK  214  A    between atoms: _531  and  _532
REMARK  215  A    between atoms: _535  and  _537
REMARK  216  A    between atoms: _537  and  _538
REMARK  217  A    between atoms: _537  and  _540
REMARK  218  A    between atoms: _540  and  _541
REMARK  219  A    between atoms: _546  and  _547
REMARK  220  A    between atoms: _549  and  _551
REMARK  221  A    between atoms: _551  and  _552
REMARK  222  A    between atoms: _554  and  _556
REMARK  223  A    between atoms: _556  and  _557
REMARK  224  A    between atoms: _560  and  _562
REMARK  225  A    between atoms: _562  and  _563
REMARK  226  A    between atoms: _562  and  _565
REMARK  227  A    between atoms: _567  and  _569
REMARK  228  A    between atoms: _569  and  _570
REMARK  229  A    between atoms: _569  and  _572
REMARK  230  A    between atoms: _572  and  _573
REMARK  231  A    between atoms: _578  and  _579
REMARK  232  A    between atoms: _581  and  _583
REMARK  233  A    between atoms: _583  and  _584
REMARK  234  A    between atoms: _583  and  _586
REMARK  235  A    between atoms: _586  and  _587
REMARK  236  A    between atoms: _590  and  _592
REMARK  237  A    between atoms: _592  and  _593
REMARK  238  A    between atoms: _592  and  _595
REMARK  239  A    between atoms: _595  and  _596
REMARK  240  A    between atoms: _601  and  _603
REMARK  241  A    between atoms: _603  and  _604
REMARK  242  A    between atoms: _603  and  _606
REMARK  243  A    between atoms: _606  and  _607
REMARK  244  A    between atoms: _617  and  _619
REMARK  245  A    between atoms: _619  and  _620
REMARK  246  A    between atoms: _619  and  _622
REMARK  247  A    between atoms: _622  and  _623
REMARK  248  A    between atoms: _629  and  _631
REMARK  249  A    between atoms: _631  and  _632
REMARK  250  A    between atoms: _635  and  _637
REMARK  251  A    between atoms: _637  and  _638
REMARK  252  A    between atoms: _640  and  _642
REMARK  253  A    between atoms: _642  and  _643
REMARK  254  A    between atoms: _642  and  _645
REMARK  255  A    between atoms: _645  and  _646
REMARK  256  A    between atoms: _651  and  _652
REMARK  257  A    between atoms: _654  and  _656
REMARK  258  A    between atoms: _656  and  _657
REMARK  259  A    between atoms: _656  and  _659
REMARK  260  A    between atoms: _659  and  _660
REMARK  261  A    between atoms: _662  and  _664
REMARK  262  A    between atoms: _664  and  _665
REMARK                            x       y       z     vdW  Elec       q    Type
REMARK                         _______ _______ _______ _____ _____    ______ ____
ROOT
ATOM      1  O   HOH     1     -17.519   0.653  32.418  0.00  0.00    +0.000 OA
ENDROOT
TORSDOF 0
REMARK  Name = ../refined-set-2016/3hky/3hky_pocket.pdb
REMARK  262 active torsions:
REMARK  status: ('A' for Active; 'I' for Inactive)
REMARK    1  A    between atoms: _1  and  _3
REMARK    2  A    between atoms: _3  and  _4
REMARK    3  A    between atoms: _3  and  _6
REMARK    4  A    between atoms: _6  and  _7
REMARK    5  A    between atoms: _7  and  _8
REMARK    6  A    between atoms: _8  and  _9
REMARK    7  A    between atoms: _9  and  _10
REMARK    8  A    between atoms: _14  and  _16
REMARK    9  A    between atoms: _16  and  _17
REMARK   10  A    between atoms: _16  and  _19
REMARK   11  A    between atoms: _19  and  _20
REMARK   12  A    between atoms: _20  and  _21
REMARK   13  A    between atoms: _24  and  _26
REMARK   14  A    between atoms: _26  and  _27
REMARK   15  A    between atoms: _26  and  _29
REMARK   16  A    between atoms: _29  and  _30
REMARK   17  A    between atoms: _30  and  _31
REMARK   18  A    between atoms: _31  and  _32
REMARK   19  A    between atoms: _41  and  _43
REMARK   20  A    between atoms: _43  and  _44
REMARK   21  A    between atoms: _46  and  _48
REMARK   22  A    between atoms: _48  and  _49
REMARK   23  A    between atoms: _48  and  _51
REMARK   24  A    between atoms: _51  and  _52
REMARK   25  A    between atoms: _58  and  _60
REMARK   26  A    between atoms: _60  and  _61
REMARK   27  A    between atoms: _60  and  _63
REMARK   28  A    between atoms: _63  and  _64
REMARK   29  A    between atoms: _69  and  _70
REMARK   30  A    between atoms: _72  and  _74
REMARK   31  A    between atoms: _74  and  _75
REMARK   32  A    between atoms: _74  and  _77
REMARK   33  A    between atoms: _77  and  _78
REMARK   34  A    between atoms: _81  and  _82
REMARK   35  A    between atoms: _87  and  _89
REMARK   36  A    between atoms: _89  and  _90
REMARK   37  A    between atoms: _89  and  _92
REMARK   38  A    between atoms: _92  and  _93
REMARK   39  A    between atoms: _93  and  _94
REMARK   40  A    between atoms: _94  and  _95
REMARK   41  A    between atoms: _95  and  _96
REMARK   42  A    between atoms: _100  and  _102
REMARK   43  A    between atoms: _102  and  _103
REMARK   44  A    between atoms: _102  and  _105
REMARK   45  A    between atoms: _105  and  _106
REMARK   46  A    between atoms: _106  and  _107
REMARK   47  A    between atoms: _112  and  _114
REMARK   48  A    between atoms: _114  and  _115
REMARK   49  A    between atoms: _114  and  _117
REMARK   50  A    between atoms: _117  and  _118
REMARK   51  A    between atoms: _118  and  _119
REMARK   52  A    between atoms: _119  and  _120
REMARK   53  A    between atoms: _129  and  _131
REMARK   54  A    between atoms: _131  and  _132
REMARK   55  A    between atoms: _131  and  _134
REMARK   56  A    between atoms: _137  and  _139
REMARK   57  A    between atoms: _139  and  _140
REMARK   58  A    between atoms: _139  and  _142
REMARK   59  A    between atoms: _142  and  _143
REMARK   60  A    between atoms: _146  and  _148
REMARK   61  A    between atoms: _148  and  _149
REMARK   62  A    between atoms: _148  and  _151
REMARK   63  A    between atoms: _151  and  _152
REMARK   64  A    between atoms: _155  and  _157
REMARK   65  A    between atoms: _157  and  _158
REMARK   66  A    between atoms: _157  and  _160
REMARK   67  A    between atoms: _160  and  _161
REMARK   68  A    between atoms: _163  and  _165
REMARK   69  A    between atoms: _165  and  _166
REMARK   70  A    between atoms: _165  and  _168
REMARK   71  A    between atoms: _168  and  _169
REMARK   72  A    between atoms: _172  and  _174
REMARK   73  A    between atoms: _174  and  _175
REMARK   74  A    between atoms: _174  and  _177
REMARK   75  A    between atoms: _177  and  _178
REMARK   76  A    between atoms: _180  and  _182
REMARK   77  A    between atoms: _182  and  _183
REMARK   78  A    between atoms: _182  and  _185
REMARK   79  A    between atoms: _185  and  _186
REMARK   80  A    between atoms: _191  and  _193
REMARK   81  A    between atoms: _193  and  _194
REMARK   82  A    between atoms: _193  and  _196
REMARK   83  A    between atoms: _196  and  _197
REMARK   84  A    between atoms: _200  and  _202
REMARK   85  A    between atoms: _202  and  _203
REMARK   86  A    between atoms: _202  and  _205
REMARK   87  A    between atoms: _205  and  _206
REMARK   88  A    between atoms: _211  and  _213
REMARK   89  A    between atoms: _213  and  _214
REMARK   90  A    between atoms: _216  and  _218
REMARK   91  A    between atoms: _218  and  _219
REMARK   92  A    between atoms: _218  and  _221
REMARK   93  A    between atoms: _221  and  _222
REMARK   94  A    between atoms: _225  and  _227
REMARK   95  A    between atoms: _227  and  _228
REMARK   96  A    between atoms: _227  and  _230
REMARK   97  A    between atoms: _230  and  _231
REMARK   98  A    between atoms: _234  and  _236
REMARK   99  A    between atoms: _236  and  _237
REMARK  100  A    between atoms: _236  and  _239
REMARK  101  A    between atoms: _239  and  _240
REMARK  102  A    between atoms: _242  and  _244
REMARK  103  A    between atoms: _244  and  _245
REMARK  104  A    between atoms: _244  and  _247
REMARK  105  A    between atoms: _249  and  _251
REMARK  106  A    between atoms: _251  and  _252
REMARK  107  A    between atoms: _251  and  _254
REMARK  108  A    between atoms: _254  and  _255
REMARK  109  A    between atoms: _257  and  _259
REMARK  110  A    between atoms: _259  and  _260
REMARK  111  A    between atoms: _259  and  _262
REMARK  112  A    between atoms: _262  and  _263
REMARK  113  A    between atoms: _265  and  _267
REMARK  114  A    between atoms: _267  and  _268
REMARK  115  A    between atoms: _267  and  _270
REMARK  116  A    between atoms: _270  and  _271
REMARK  117  A    between atoms: _276  and  _278
REMARK  118  A    between atoms: _278  and  _279
REMARK  119  A    between atoms: _278  and  _281
REMARK  120  A    between atoms: _281  and  _282
REMARK  121  A    between atoms: _287  and  _288
REMARK  122  A    between atoms: _290  and  _292
REMARK  123  A    between atoms: _292  and  _293
REMARK  124  A    between atoms: _292  and  _295
REMARK  125  A    between atoms: _295  and  _296
REMARK  126  A    between atoms: _299  and  _301
REMARK  127  A    between atoms: _301  and  _302
REMARK  128  A    between atoms: _301  and  _304
REMARK  129  A    between atoms: _304  and  _305
REMARK  130  A    between atoms: _308  and  _310
REMARK  131  A    between atoms: _310  and  _311
REMARK  132  A    between atoms: _310  and  _313
REMARK  133  A    between atoms: _313  and  _314
REMARK  134  A    between atoms: _314  and  _315
REMARK  135  A    between atoms: _315  and  _316
REMARK  136  A    between atoms: _326  and  _327
REMARK  137  A    between atoms: _332  and  _334
REMARK  138  A    between atoms: _334  and  _335
REMARK  139  A    between atoms: _334  and  _337
REMARK  140  A    between atoms: _337  and  _338
REMARK  141  A    between atoms: _338  and  _339
REMARK  142  A    between atoms: _339  and  _340
REMARK  143  A    between atoms: _349  and  _351
REMARK  144  A    between atoms: _351  and  _352
REMARK  145  A    between atoms: _351  and  _354
REMARK  146  A    between atoms: _354  and  _355
REMARK  147  A    between atoms: _355  and  _356
REMARK  148  A    between atoms: _359  and  _361
REMARK  149  A    between atoms: _361  and  _362
REMARK  150  A    between atoms: _361  and  _364
REMARK  151  A    between atoms: _364  and  _365
REMARK  152  A    between atoms: _368  and  _370
REMARK  153  A    between atoms: _370  and  _371
REMARK  154  A    between atoms: _370  and  _373
REMARK  155  A    between atoms: _373  and  _374
REMARK  156  A    between atoms: _379  and  _381
REMARK  157  A    between atoms: _381  and  _382
REMARK  158  A    between atoms: _381  and  _384
REMARK  159  A    between atoms: _384  and  _385
REMARK  160  A    between atoms: _387  and  _389
REMARK  161  A    between atoms: _389  and  _390
REMARK  162  A    between atoms: _389  and  _392
REMARK  163  A    between atoms: _392  and  _393
REMARK  164  A    between atoms: _403  and  _405
REMARK  165  A    between atoms: _405  and  _406
REMARK  166  A    between atoms: _405  and  _408
REMARK  167  A    between atoms: _408  and  _409
REMARK  168  A    between atoms: _412  and  _414
REMARK  169  A    between atoms: _414  and  _415
REMARK  170  A    between atoms: _417  and  _419
REMARK  171  A    between atoms: _419  and  _420
REMARK  172  A    between atoms: _419  and  _422
REMARK  173  A    between atoms: _422  and  _423
REMARK  174  A    between atoms: _428  and  _430
REMARK  175  A    between atoms: _430  and  _431
REMARK  176  A    between atoms: _430  and  _433
REMARK  177  A    between atoms: _433  and  _434
REMARK  178  A    between atoms: _437  and  _439
REMARK  179  A    between atoms: _439  and  _440
REMARK  180  A    between atoms: _439  and  _442
REMARK  181  A    between atoms: _442  and  _443
REMARK  182  A    between atoms: _446  and  _448
REMARK  183  A    between atoms: _448  and  _449
REMARK  184  A    between atoms: _448  and  _451
REMARK  185  A    between atoms: _451  and  _452
REMARK  186  A    between atoms: _452  and  _453
REMARK  187  A    between atoms: _455  and  _457
REMARK  188  A    between atoms: _457  and  _458
REMARK  189  A    between atoms: _457  and  _460
REMARK  190  A    between atoms: _460  and  _461
REMARK  191  A    between atoms: _466  and  _467
REMARK  192  A    between atoms: _469  and  _471
REMARK  193  A    between atoms: _471  and  _472
REMARK  194  A    between atoms: _476  and  _477
REMARK  195  A    between atoms: _482  and  _484
REMARK  196  A    between atoms: _484  and  _485
REMARK  197  A    between atoms: _484  and  _487
REMARK  198  A    between atoms: _487  and  _488
REMARK  199  A    between atoms: _491  and  _493
REMARK  200  A    between atoms: _493  and  _494
REMARK  201  A    between atoms: _493  and  _496
REMARK  202  A    between atoms: _496  and  _497
REMARK  203  A    between atoms: _507  and  _509
REMARK  204  A    between atoms: _509  and  _510
REMARK  205  A    between atoms: _509  and  _512
REMARK  206  A    between atoms: _514  and  _516
REMARK  207  A    between atoms: _516  and  _517
REMARK  208  A    between atoms: _516  and  _519
REMARK  209  A    between atoms: _519  and  _520
REMARK  210  A    between atoms: _520  and  _521
REMARK  211  A    between atoms: _526  and  _528
REMARK  212  A    between atoms: _528  and  _529
REMARK  213  A    between atoms: _528  and  _531
REMARK  214  A    between atoms: _531  and  _532
REMARK  215  A    between atoms: _535  and  _537
REMARK  216  A    between atoms: _537  and  _538
REMARK  217  A    between atoms: _537  and  _540
REMARK  218  A    between atoms: _540  and  _541
REMARK  219  A    between atoms: _546  and  _547
REMARK  220  A    between atoms: _549  and  _551
REMARK  221  A    between atoms: _551  and  _552
REMARK  222  A    between atoms: _554  and  _556
REMARK  223  A    between atoms: _556  and  _557
REMARK  224  A    between atoms: _560  and  _562
REMARK  225  A    between atoms: _562  and  _563
REMARK  226  A    between atoms: _562  and  _565
REMARK  227  A    between atoms: _567  and  _569
REMARK  228  A    between atoms: _569  and  _570
REMARK  229  A    between atoms: _569  and  _572
REMARK  230  A    between atoms: _572  and  _573
REMARK  231  A    between atoms: _578  and  _579
REMARK  232  A    between atoms: _581  and  _583
REMARK  233  A    between atoms: _583  and  _584
REMARK  234  A    between atoms: _583  and  _586
REMARK  235  A    between atoms: _586  and  _587
REMARK  236  A    between atoms: _590  and  _592
REMARK  237  A    between atoms: _592  and  _593
REMARK  238  A    between atoms: _592  and  _595
REMARK  239  A    between atoms: _595  and  _596
REMARK  240  A    between atoms: _601  and  _603
REMARK  241  A    between atoms: _603  and  _604
REMARK  242  A    between atoms: _603  and  _606
REMARK  243  A    between atoms: _606  and  _607
REMARK  244  A    between atoms: _617  and  _619
REMARK  245  A    between atoms: _619  and  _620
REMARK  246  A    between atoms: _619  and  _622
REMARK  247  A    between atoms: _622  and  _623
REMARK  248  A    between atoms: _629  and  _631
REMARK  249  A    between atoms: _631  and  _632
REMARK  250  A    between atoms: _635  and  _637
REMARK  251  A    between atoms: _637  and  _638
REMARK  252  A    between atoms: _640  and  _642
REMARK  253  A    between atoms: _642  and  _643
REMARK  254  A    between atoms: _642  and  _645
REMARK  255  A    between atoms: _645  and  _646
REMARK  256  A    between atoms: _651  and  _652
REMARK  257  A    between atoms: _654  and  _656
REMARK  258  A    between atoms: _656  and  _657
REMARK  259  A    between atoms: _656  and  _659
REMARK  260  A    between atoms: _659  and  _660
REMARK  261  A    between atoms: _662  and  _664
REMARK  262  A    between atoms: _664  and  _665
REMARK                            x       y       z     vdW  Elec       q    Type
REMARK                         _______ _______ _______ _____ _____    ______ ____
ROOT
ATOM      1  O   HOH     1     -18.222 -13.560  37.314  0.00  0.00    +0.000 OA
ENDROOT
TORSDOF 0
REMARK  Name = ../refined-set-2016/3hky/3hky_pocket.pdb
REMARK  262 active torsions:
REMARK  status: ('A' for Active; 'I' for Inactive)
REMARK    1  A    between atoms: _1  and  _3
REMARK    2  A    between atoms: _3  and  _4
REMARK    3  A    between atoms: _3  and  _6
REMARK    4  A    between atoms: _6  and  _7
REMARK    5  A    between atoms: _7  and  _8
REMARK    6  A    between atoms: _8  and  _9
REMARK    7  A    between atoms: _9  and  _10
REMARK    8  A    between atoms: _14  and  _16
REMARK    9  A    between atoms: _16  and  _17
REMARK   10  A    between atoms: _16  and  _19
REMARK   11  A    between atoms: _19  and  _20
REMARK   12  A    between atoms: _20  and  _21
REMARK   13  A    between atoms: _24  and  _26
REMARK   14  A    between atoms: _26  and  _27
REMARK   15  A    between atoms: _26  and  _29
REMARK   16  A    between atoms: _29  and  _30
REMARK   17  A    between atoms: _30  and  _31
REMARK   18  A    between atoms: _31  and  _32
REMARK   19  A    between atoms: _41  and  _43
REMARK   20  A    between atoms: _43  and  _44
REMARK   21  A    between atoms: _46  and  _48
REMARK   22  A    between atoms: _48  and  _49
REMARK   23  A    between atoms: _48  and  _51
REMARK   24  A    between atoms: _51  and  _52
REMARK   25  A    between atoms: _58  and  _60
REMARK   26  A    between atoms: _60  and  _61
REMARK   27  A    between atoms: _60  and  _63
REMARK   28  A    between atoms: _63  and  _64
REMARK   29  A    between atoms: _69  and  _70
REMARK   30  A    between atoms: _72  and  _74
REMARK   31  A    between atoms: _74  and  _75
REMARK   32  A    between atoms: _74  and  _77
REMARK   33  A    between atoms: _77  and  _78
REMARK   34  A    between atoms: _81  and  _82
REMARK   35  A    between atoms: _87  and  _89
REMARK   36  A    between atoms: _89  and  _90
REMARK   37  A    between atoms: _89  and  _92
REMARK   38  A    between atoms: _92  and  _93
REMARK   39  A    between atoms: _93  and  _94
REMARK   40  A    between atoms: _94  and  _95
REMARK   41  A    between atoms: _95  and  _96
REMARK   42  A    between atoms: _100  and  _102
REMARK   43  A    between atoms: _102  and  _103
REMARK   44  A    between atoms: _102  and  _105
REMARK   45  A    between atoms: _105  and  _106
REMARK   46  A    between atoms: _106  and  _107
REMARK   47  A    between atoms: _112  and  _114
REMARK   48  A    between atoms: _114  and  _115
REMARK   49  A    between atoms: _114  and  _117
REMARK   50  A    between atoms: _117  and  _118
REMARK   51  A    between atoms: _118  and  _119
REMARK   52  A    between atoms: _119  and  _120
REMARK   53  A    between atoms: _129  and  _131
REMARK   54  A    between atoms: _131  and  _132
REMARK   55  A    between atoms: _131  and  _134
REMARK   56  A    between atoms: _137  and  _139
REMARK   57  A    between atoms: _139  and  _140
REMARK   58  A    between atoms: _139  and  _142
REMARK   59  A    between atoms: _142  and  _143
REMARK   60  A    between atoms: _146  and  _148
REMARK   61  A    between atoms: _148  and  _149
REMARK   62  A    between atoms: _148  and  _151
REMARK   63  A    between atoms: _151  and  _152
REMARK   64  A    between atoms: _155  and  _157
REMARK   65  A    between atoms: _157  and  _158
REMARK   66  A    between atoms: _157  and  _160
REMARK   67  A    between atoms: _160  and  _161
REMARK   68  A    between atoms: _163  and  _165
REMARK   69  A    between atoms: _165  and  _166
REMARK   70  A    between atoms: _165  and  _168
REMARK   71  A    between atoms: _168  and  _169
REMARK   72  A    between atoms: _172  and  _174
REMARK   73  A    between atoms: _174  and  _175
REMARK   74  A    between atoms: _174  and  _177
REMARK   75  A    between atoms: _177  and  _178
REMARK   76  A    between atoms: _180  and  _182
REMARK   77  A    between atoms: _182  and  _183
REMARK   78  A    between atoms: _182  and  _185
REMARK   79  A    between atoms: _185  and  _186
REMARK   80  A    between atoms: _191  and  _193
REMARK   81  A    between atoms: _193  and  _194
REMARK   82  A    between atoms: _193  and  _196
REMARK   83  A    between atoms: _196  and  _197
REMARK   84  A    between atoms: _200  and  _202
REMARK   85  A    between atoms: _202  and  _203
REMARK   86  A    between atoms: _202  and  _205
REMARK   87  A    between atoms: _205  and  _206
REMARK   88  A    between atoms: _211  and  _213
REMARK   89  A    between atoms: _213  and  _214
REMARK   90  A    between atoms: _216  and  _218
REMARK   91  A    between atoms: _218  and  _219
REMARK   92  A    between atoms: _218  and  _221
REMARK   93  A    between atoms: _221  and  _222
REMARK   94  A    between atoms: _225  and  _227
REMARK   95  A    between atoms: _227  and  _228
REMARK   96  A    between atoms: _227  and  _230
REMARK   97  A    between atoms: _230  and  _231
REMARK   98  A    between atoms: _234  and  _236
REMARK   99  A    between atoms: _236  and  _237
REMARK  100  A    between atoms: _236  and  _239
REMARK  101  A    between atoms: _239  and  _240
REMARK  102  A    between atoms: _242  and  _244
REMARK  103  A    between atoms: _244  and  _245
REMARK  104  A    between atoms: _244  and  _247
REMARK  105  A    between atoms: _249  and  _251
REMARK  106  A    between atoms: _251  and  _252
REMARK  107  A    between atoms: _251  and  _254
REMARK  108  A    between atoms: _254  and  _255
REMARK  109  A    between atoms: _257  and  _259
REMARK  110  A    between atoms: _259  and  _260
REMARK  111  A    between atoms: _259  and  _262
REMARK  112  A    between atoms: _262  and  _263
REMARK  113  A    between atoms: _265  and  _267
REMARK  114  A    between atoms: _267  and  _268
REMARK  115  A    between atoms: _267  and  _270
REMARK  116  A    between atoms: _270  and  _271
REMARK  117  A    between atoms: _276  and  _278
REMARK  118  A    between atoms: _278  and  _279
REMARK  119  A    between atoms: _278  and  _281
REMARK  120  A    between atoms: _281  and  _282
REMARK  121  A    between atoms: _287  and  _288
REMARK  122  A    between atoms: _290  and  _292
REMARK  123  A    between atoms: _292  and  _293
REMARK  124  A    between atoms: _292  and  _295
REMARK  125  A    between atoms: _295  and  _296
REMARK  126  A    between atoms: _299  and  _301
REMARK  127  A    between atoms: _301  and  _302
REMARK  128  A    between atoms: _301  and  _304
REMARK  129  A    between atoms: _304  and  _305
REMARK  130  A    between atoms: _308  and  _310
REMARK  131  A    between atoms: _310  and  _311
REMARK  132  A    between atoms: _310  and  _313
REMARK  133  A    between atoms: _313  and  _314
REMARK  134  A    between atoms: _314  and  _315
REMARK  135  A    between atoms: _315  and  _316
REMARK  136  A    between atoms: _326  and  _327
REMARK  137  A    between atoms: _332  and  _334
REMARK  138  A    between atoms: _334  and  _335
REMARK  139  A    between atoms: _334  and  _337
REMARK  140  A    between atoms: _337  and  _338
REMARK  141  A    between atoms: _338  and  _339
REMARK  142  A    between atoms: _339  and  _340
REMARK  143  A    between atoms: _349  and  _351
REMARK  144  A    between atoms: _351  and  _352
REMARK  145  A    between atoms: _351  and  _354
REMARK  146  A    between atoms: _354  and  _355
REMARK  147  A    between atoms: _355  and  _356
REMARK  148  A    between atoms: _359  and  _361
REMARK  149  A    between atoms: _361  and  _362
REMARK  150  A    between atoms: _361  and  _364
REMARK  151  A    between atoms: _364  and  _365
REMARK  152  A    between atoms: _368  and  _370
REMARK  153  A    between atoms: _370  and  _371
REMARK  154  A    between atoms: _370  and  _373
REMARK  155  A    between atoms: _373  and  _374
REMARK  156  A    between atoms: _379  and  _381
REMARK  157  A    between atoms: _381  and  _382
REMARK  158  A    between atoms: _381  and  _384
REMARK  159  A    between atoms: _384  and  _385
REMARK  160  A    between atoms: _387  and  _389
REMARK  161  A    between atoms: _389  and  _390
REMARK  162  A    between atoms: _389  and  _392
REMARK  163  A    between atoms: _392  and  _393
REMARK  164  A    between atoms: _403  and  _405
REMARK  165  A    between atoms: _405  and  _406
REMARK  166  A    between atoms: _405  and  _408
REMARK  167  A    between atoms: _408  and  _409
REMARK  168  A    between atoms: _412  and  _414
REMARK  169  A    between atoms: _414  and  _415
REMARK  170  A    between atoms: _417  and  _419
REMARK  171  A    between atoms: _419  and  _420
REMARK  172  A    between atoms: _419  and  _422
REMARK  173  A    between atoms: _422  and  _423
REMARK  174  A    between atoms: _428  and  _430
REMARK  175  A    between atoms: _430  and  _431
REMARK  176  A    between atoms: _430  and  _433
REMARK  177  A    between atoms: _433  and  _434
REMARK  178  A    between atoms: _437  and  _439
REMARK  179  A    between atoms: _439  and  _440
REMARK  180  A    between atoms: _439  and  _442
REMARK  181  A    between atoms: _442  and  _443
REMARK  182  A    between atoms: _446  and  _448
REMARK  183  A    between atoms: _448  and  _449
REMARK  184  A    between atoms: _448  and  _451
REMARK  185  A    between atoms: _451  and  _452
REMARK  186  A    between atoms: _452  and  _453
REMARK  187  A    between atoms: _455  and  _457
REMARK  188  A    between atoms: _457  and  _458
REMARK  189  A    between atoms: _457  and  _460
REMARK  190  A    between atoms: _460  and  _461
REMARK  191  A    between atoms: _466  and  _467
REMARK  192  A    between atoms: _469  and  _471
REMARK  193  A    between atoms: _471  and  _472
REMARK  194  A    between atoms: _476  and  _477
REMARK  195  A    between atoms: _482  and  _484
REMARK  196  A    between atoms: _484  and  _485
REMARK  197  A    between atoms: _484  and  _487
REMARK  198  A    between atoms: _487  and  _488
REMARK  199  A    between atoms: _491  and  _493
REMARK  200  A    between atoms: _493  and  _494
REMARK  201  A    between atoms: _493  and  _496
REMARK  202  A    between atoms: _496  and  _497
REMARK  203  A    between atoms: _507  and  _509
REMARK  204  A    between atoms: _509  and  _510
REMARK  205  A    between atoms: _509  and  _512
REMARK  206  A    between atoms: _514  and  _516
REMARK  207  A    between atoms: _516  and  _517
REMARK  208  A    between atoms: _516  and  _519
REMARK  209  A    between atoms: _519  and  _520
REMARK  210  A    between atoms: _520  and  _521
REMARK  211  A    between atoms: _526  and  _528
REMARK  212  A    between atoms: _528  and  _529
REMARK  213  A    between atoms: _528  and  _531
REMARK  214  A    between atoms: _531  and  _532
REMARK  215  A    between atoms: _535  and  _537
REMARK  216  A    between atoms: _537  and  _538
REMARK  217  A    between atoms: _537  and  _540
REMARK  218  A    between atoms: _540  and  _541
REMARK  219  A    between atoms: _546  and  _547
REMARK  220  A    between atoms: _549  and  _551
REMARK  221  A    between atoms: _551  and  _552
REMARK  222  A    between atoms: _554  and  _556
REMARK  223  A    between atoms: _556  and  _557
REMARK  224  A    between atoms: _560  and  _562
REMARK  225  A    between atoms: _562  and  _563
REMARK  226  A    between atoms: _562  and  _565
REMARK  227  A    between atoms: _567  and  _569
REMARK  228  A    between atoms: _569  and  _570
REMARK  229  A    between atoms: _569  and  _572
REMARK  230  A    between atoms: _572  and  _573
REMARK  231  A    between atoms: _578  and  _579
REMARK  232  A    between atoms: _581  and  _583
REMARK  233  A    between atoms: _583  and  _584
REMARK  234  A    between atoms: _583  and  _586
REMARK  235  A    between atoms: _586  and  _587
REMARK  236  A    between atoms: _590  and  _592
REMARK  237  A    between atoms: _592  and  _593
REMARK  238  A    between atoms: _592  and  _595
REMARK  239  A    between atoms: _595  and  _596
REMARK  240  A    between atoms: _601  and  _603
REMARK  241  A    between atoms: _603  and  _604
REMARK  242  A    between atoms: _603  and  _606
REMARK  243  A    between atoms: _606  and  _607
REMARK  244  A    between atoms: _617  and  _619
REMARK  245  A    between atoms: _619  and  _620
REMARK  246  A    between atoms: _619  and  _622
REMARK  247  A    between atoms: _622  and  _623
REMARK  248  A    between atoms: _629  and  _631
REMARK  249  A    between atoms: _631  and  _632
REMARK  250  A    between atoms: _635  and  _637
REMARK  251  A    between atoms: _637  and  _638
REMARK  252  A    between atoms: _640  and  _642
REMARK  253  A    between atoms: _642  and  _643
REMARK  254  A    between atoms: _642  and  _645
REMARK  255  A    between atoms: _645  and  _646
REMARK  256  A    between atoms: _651  and  _652
REMARK  257  A    between atoms: _654  and  _656
REMARK  258  A    between atoms: _656  and  _657
REMARK  259  A    between atoms: _656  and  _659
REMARK  260  A    between atoms: _659  and  _660
REMARK  261  A    between atoms: _662  and  _664
REMARK  262  A    between atoms: _664  and  _665
REMARK                            x       y       z     vdW  Elec       q    Type
REMARK                         _______ _______ _______ _____ _____    ______ ____
ROOT
ATOM      1  O   HOH     1     -24.300  -2.506  33.969  0.00  0.00    +0.000 OA
ENDROOT
TORSDOF 0
REMARK  Name = ../refined-set-2016/3hky/3hky_pocket.pdb
REMARK  262 active torsions:
REMARK  status: ('A' for Active; 'I' for Inactive)
REMARK    1  A    between atoms: _1  and  _3
REMARK    2  A    between atoms: _3  and  _4
REMARK    3  A    between atoms: _3  and  _6
REMARK    4  A    between atoms: _6  and  _7
REMARK    5  A    between atoms: _7  and  _8
REMARK    6  A    between atoms: _8  and  _9
REMARK    7  A    between atoms: _9  and  _10
REMARK    8  A    between atoms: _14  and  _16
REMARK    9  A    between atoms: _16  and  _17
REMARK   10  A    between atoms: _16  and  _19
REMARK   11  A    between atoms: _19  and  _20
REMARK   12  A    between atoms: _20  and  _21
REMARK   13  A    between atoms: _24  and  _26
REMARK   14  A    between atoms: _26  and  _27
REMARK   15  A    between atoms: _26  and  _29
REMARK   16  A    between atoms: _29  and  _30
REMARK   17  A    between atoms: _30  and  _31
REMARK   18  A    between atoms: _31  and  _32
REMARK   19  A    between atoms: _41  and  _43
REMARK   20  A    between atoms: _43  and  _44
REMARK   21  A    between atoms: _46  and  _48
REMARK   22  A    between atoms: _48  and  _49
REMARK   23  A    between atoms: _48  and  _51
REMARK   24  A    between atoms: _51  and  _52
REMARK   25  A    between atoms: _58  and  _60
REMARK   26  A    between atoms: _60  and  _61
REMARK   27  A    between atoms: _60  and  _63
REMARK   28  A    between atoms: _63  and  _64
REMARK   29  A    between atoms: _69  and  _70
REMARK   30  A    between atoms: _72  and  _74
REMARK   31  A    between atoms: _74  and  _75
REMARK   32  A    between atoms: _74  and  _77
REMARK   33  A    between atoms: _77  and  _78
REMARK   34  A    between atoms: _81  and  _82
REMARK   35  A    between atoms: _87  and  _89
REMARK   36  A    between atoms: _89  and  _90
REMARK   37  A    between atoms: _89  and  _92
REMARK   38  A    between atoms: _92  and  _93
REMARK   39  A    between atoms: _93  and  _94
REMARK   40  A    between atoms: _94  and  _95
REMARK   41  A    between atoms: _95  and  _96
REMARK   42  A    between atoms: _100  and  _102
REMARK   43  A    between atoms: _102  and  _103
REMARK   44  A    between atoms: _102  and  _105
REMARK   45  A    between atoms: _105  and  _106
REMARK   46  A    between atoms: _106  and  _107
REMARK   47  A    between atoms: _112  and  _114
REMARK   48  A    between atoms: _114  and  _115
REMARK   49  A    between atoms: _114  and  _117
REMARK   50  A    between atoms: _117  and  _118
REMARK   51  A    between atoms: _118  and  _119
REMARK   52  A    between atoms: _119  and  _120
REMARK   53  A    between atoms: _129  and  _131
REMARK   54  A    between atoms: _131  and  _132
REMARK   55  A    between atoms: _131  and  _134
REMARK   56  A    between atoms: _137  and  _139
REMARK   57  A    between atoms: _139  and  _140
REMARK   58  A    between atoms: _139  and  _142
REMARK   59  A    between atoms: _142  and  _143
REMARK   60  A    between atoms: _146  and  _148
REMARK   61  A    between atoms: _148  and  _149
REMARK   62  A    between atoms: _148  and  _151
REMARK   63  A    between atoms: _151  and  _152
REMARK   64  A    between atoms: _155  and  _157
REMARK   65  A    between atoms: _157  and  _158
REMARK   66  A    between atoms: _157  and  _160
REMARK   67  A    between atoms: _160  and  _161
REMARK   68  A    between atoms: _163  and  _165
REMARK   69  A    between atoms: _165  and  _166
REMARK   70  A    between atoms: _165  and  _168
REMARK   71  A    between atoms: _168  and  _169
REMARK   72  A    between atoms: _172  and  _174
REMARK   73  A    between atoms: _174  and  _175
REMARK   74  A    between atoms: _174  and  _177
REMARK   75  A    between atoms: _177  and  _178
REMARK   76  A    between atoms: _180  and  _182
REMARK   77  A    between atoms: _182  and  _183
REMARK   78  A    between atoms: _182  and  _185
REMARK   79  A    between atoms: _185  and  _186
REMARK   80  A    between atoms: _191  and  _193
REMARK   81  A    between atoms: _193  and  _194
REMARK   82  A    between atoms: _193  and  _196
REMARK   83  A    between atoms: _196  and  _197
REMARK   84  A    between atoms: _200  and  _202
REMARK   85  A    between atoms: _202  and  _203
REMARK   86  A    between atoms: _202  and  _205
REMARK   87  A    between atoms: _205  and  _206
REMARK   88  A    between atoms: _211  and  _213
REMARK   89  A    between atoms: _213  and  _214
REMARK   90  A    between atoms: _216  and  _218
REMARK   91  A    between atoms: _218  and  _219
REMARK   92  A    between atoms: _218  and  _221
REMARK   93  A    between atoms: _221  and  _222
REMARK   94  A    between atoms: _225  and  _227
REMARK   95  A    between atoms: _227  and  _228
REMARK   96  A    between atoms: _227  and  _230
REMARK   97  A    between atoms: _230  and  _231
REMARK   98  A    between atoms: _234  and  _236
REMARK   99  A    between atoms: _236  and  _237
REMARK  100  A    between atoms: _236  and  _239
REMARK  101  A    between atoms: _239  and  _240
REMARK  102  A    between atoms: _242  and  _244
REMARK  103  A    between atoms: _244  and  _245
REMARK  104  A    between atoms: _244  and  _247
REMARK  105  A    between atoms: _249  and  _251
REMARK  106  A    between atoms: _251  and  _252
REMARK  107  A    between atoms: _251  and  _254
REMARK  108  A    between atoms: _254  and  _255
REMARK  109  A    between atoms: _257  and  _259
REMARK  110  A    between atoms: _259  and  _260
REMARK  111  A    between atoms: _259  and  _262
REMARK  112  A    between atoms: _262  and  _263
REMARK  113  A    between atoms: _265  and  _267
REMARK  114  A    between atoms: _267  and  _268
REMARK  115  A    between atoms: _267  and  _270
REMARK  116  A    between atoms: _270  and  _271
REMARK  117  A    between atoms: _276  and  _278
REMARK  118  A    between atoms: _278  and  _279
REMARK  119  A    between atoms: _278  and  _281
REMARK  120  A    between atoms: _281  and  _282
REMARK  121  A    between atoms: _287  and  _288
REMARK  122  A    between atoms: _290  and  _292
REMARK  123  A    between atoms: _292  and  _293
REMARK  124  A    between atoms: _292  and  _295
REMARK  125  A    between atoms: _295  and  _296
REMARK  126  A    between atoms: _299  and  _301
REMARK  127  A    between atoms: _301  and  _302
REMARK  128  A    between atoms: _301  and  _304
REMARK  129  A    between atoms: _304  and  _305
REMARK  130  A    between atoms: _308  and  _310
REMARK  131  A    between atoms: _310  and  _311
REMARK  132  A    between atoms: _310  and  _313
REMARK  133  A    between atoms: _313  and  _314
REMARK  134  A    between atoms: _314  and  _315
REMARK  135  A    between atoms: _315  and  _316
REMARK  136  A    between atoms: _326  and  _327
REMARK  137  A    between atoms: _332  and  _334
REMARK  138  A    between atoms: _334  and  _335
REMARK  139  A    between atoms: _334  and  _337
REMARK  140  A    between atoms: _337  and  _338
REMARK  141  A    between atoms: _338  and  _339
REMARK  142  A    between atoms: _339  and  _340
REMARK  143  A    between atoms: _349  and  _351
REMARK  144  A    between atoms: _351  and  _352
REMARK  145  A    between atoms: _351  and  _354
REMARK  146  A    between atoms: _354  and  _355
REMARK  147  A    between atoms: _355  and  _356
REMARK  148  A    between atoms: _359  and  _361
REMARK  149  A    between atoms: _361  and  _362
REMARK  150  A    between atoms: _361  and  _364
REMARK  151  A    between atoms: _364  and  _365
REMARK  152  A    between atoms: _368  and  _370
REMARK  153  A    between atoms: _370  and  _371
REMARK  154  A    between atoms: _370  and  _373
REMARK  155  A    between atoms: _373  and  _374
REMARK  156  A    between atoms: _379  and  _381
REMARK  157  A    between atoms: _381  and  _382
REMARK  158  A    between atoms: _381  and  _384
REMARK  159  A    between atoms: _384  and  _385
REMARK  160  A    between atoms: _387  and  _389
REMARK  161  A    between atoms: _389  and  _390
REMARK  162  A    between atoms: _389  and  _392
REMARK  163  A    between atoms: _392  and  _393
REMARK  164  A    between atoms: _403  and  _405
REMARK  165  A    between atoms: _405  and  _406
REMARK  166  A    between atoms: _405  and  _408
REMARK  167  A    between atoms: _408  and  _409
REMARK  168  A    between atoms: _412  and  _414
REMARK  169  A    between atoms: _414  and  _415
REMARK  170  A    between atoms: _417  and  _419
REMARK  171  A    between atoms: _419  and  _420
REMARK  172  A    between atoms: _419  and  _422
REMARK  173  A    between atoms: _422  and  _423
REMARK  174  A    between atoms: _428  and  _430
REMARK  175  A    between atoms: _430  and  _431
REMARK  176  A    between atoms: _430  and  _433
REMARK  177  A    between atoms: _433  and  _434
REMARK  178  A    between atoms: _437  and  _439
REMARK  179  A    between atoms: _439  and  _440
REMARK  180  A    between atoms: _439  and  _442
REMARK  181  A    between atoms: _442  and  _443
REMARK  182  A    between atoms: _446  and  _448
REMARK  183  A    between atoms: _448  and  _449
REMARK  184  A    between atoms: _448  and  _451
REMARK  185  A    between atoms: _451  and  _452
REMARK  186  A    between atoms: _452  and  _453
REMARK  187  A    between atoms: _455  and  _457
REMARK  188  A    between atoms: _457  and  _458
REMARK  189  A    between atoms: _457  and  _460
REMARK  190  A    between atoms: _460  and  _461
REMARK  191  A    between atoms: _466  and  _467
REMARK  192  A    between atoms: _469  and  _471
REMARK  193  A    between atoms: _471  and  _472
REMARK  194  A    between atoms: _476  and  _477
REMARK  195  A    between atoms: _482  and  _484
REMARK  196  A    between atoms: _484  and  _485
REMARK  197  A    between atoms: _484  and  _487
REMARK  198  A    between atoms: _487  and  _488
REMARK  199  A    between atoms: _491  and  _493
REMARK  200  A    between atoms: _493  and  _494
REMARK  201  A    between atoms: _493  and  _496
REMARK  202  A    between atoms: _496  and  _497
REMARK  203  A    between atoms: _507  and  _509
REMARK  204  A    between atoms: _509  and  _510
REMARK  205  A    between atoms: _509  and  _512
REMARK  206  A    between atoms: _514  and  _516
REMARK  207  A    between atoms: _516  and  _517
REMARK  208  A    between atoms: _516  and  _519
REMARK  209  A    between atoms: _519  and  _520
REMARK  210  A    between atoms: _520  and  _521
REMARK  211  A    between atoms: _526  and  _528
REMARK  212  A    between atoms: _528  and  _529
REMARK  213  A    between atoms: _528  and  _531
REMARK  214  A    between atoms: _531  and  _532
REMARK  215  A    between atoms: _535  and  _537
REMARK  216  A    between atoms: _537  and  _538
REMARK  217  A    between atoms: _537  and  _540
REMARK  218  A    between atoms: _540  and  _541
REMARK  219  A    between atoms: _546  and  _547
REMARK  220  A    between atoms: _549  and  _551
REMARK  221  A    between atoms: _551  and  _552
REMARK  222  A    between atoms: _554  and  _556
REMARK  223  A    between atoms: _556  and  _557
REMARK  224  A    between atoms: _560  and  _562
REMARK  225  A    between atoms: _562  and  _563
REMARK  226  A    between atoms: _562  and  _565
REMARK  227  A    between atoms: _567  and  _569
REMARK  228  A    between atoms: _569  and  _570
REMARK  229  A    between atoms: _569  and  _572
REMARK  230  A    between atoms: _572  and  _573
REMARK  231  A    between atoms: _578  and  _579
REMARK  232  A    between atoms: _581  and  _583
REMARK  233  A    between atoms: _583  and  _584
REMARK  234  A    between atoms: _583  and  _586
REMARK  235  A    between atoms: _586  and  _587
REMARK  236  A    between atoms: _590  and  _592
REMARK  237  A    between atoms: _592  and  _593
REMARK  238  A    between atoms: _592  and  _595
REMARK  239  A    between atoms: _595  and  _596
REMARK  240  A    between atoms: _601  and  _603
REMARK  241  A    between atoms: _603  and  _604
REMARK  242  A    between atoms: _603  and  _606
REMARK  243  A    between atoms: _606  and  _607
REMARK  244  A    between atoms: _617  and  _619
REMARK  245  A    between atoms: _619  and  _620
REMARK  246  A    between atoms: _619  and  _622
REMARK  247  A    between atoms: _622  and  _623
REMARK  248  A    between atoms: _629  and  _631
REMARK  249  A    between atoms: _631  and  _632
REMARK  250  A    between atoms: _635  and  _637
REMARK  251  A    between atoms: _637  and  _638
REMARK  252  A    between atoms: _640  and  _642
REMARK  253  A    between atoms: _642  and  _643
REMARK  254  A    between atoms: _642  and  _645
REMARK  255  A    between atoms: _645  and  _646
REMARK  256  A    between atoms: _651  and  _652
REMARK  257  A    between atoms: _654  and  _656
REMARK  258  A    between atoms: _656  and  _657
REMARK  259  A    between atoms: _656  and  _659
REMARK  260  A    between atoms: _659  and  _660
REMARK  261  A    between atoms: _662  and  _664
REMARK  262  A    between atoms: _664  and  _665
REMARK                            x       y       z     vdW  Elec       q    Type
REMARK                         _______ _______ _______ _____ _____    ______ ____
ROOT
ATOM      1  O   HOH     1     -27.712   3.052  35.237  0.00  0.00    +0.000 OA
ENDROOT
TORSDOF 0
REMARK  Name = ../refined-set-2016/3hky/3hky_pocket.pdb
REMARK  262 active torsions:
REMARK  status: ('A' for Active; 'I' for Inactive)
REMARK    1  A    between atoms: _1  and  _3
REMARK    2  A    between atoms: _3  and  _4
REMARK    3  A    between atoms: _3  and  _6
REMARK    4  A    between atoms: _6  and  _7
REMARK    5  A    between atoms: _7  and  _8
REMARK    6  A    between atoms: _8  and  _9
REMARK    7  A    between atoms: _9  and  _10
REMARK    8  A    between atoms: _14  and  _16
REMARK    9  A    between atoms: _16  and  _17
REMARK   10  A    between atoms: _16  and  _19
REMARK   11  A    between atoms: _19  and  _20
REMARK   12  A    between atoms: _20  and  _21
REMARK   13  A    between atoms: _24  and  _26
REMARK   14  A    between atoms: _26  and  _27
REMARK   15  A    between atoms: _26  and  _29
REMARK   16  A    between atoms: _29  and  _30
REMARK   17  A    between atoms: _30  and  _31
REMARK   18  A    between atoms: _31  and  _32
REMARK   19  A    between atoms: _41  and  _43
REMARK   20  A    between atoms: _43  and  _44
REMARK   21  A    between atoms: _46  and  _48
REMARK   22  A    between atoms: _48  and  _49
REMARK   23  A    between atoms: _48  and  _51
REMARK   24  A    between atoms: _51  and  _52
REMARK   25  A    between atoms: _58  and  _60
REMARK   26  A    between atoms: _60  and  _61
REMARK   27  A    between atoms: _60  and  _63
REMARK   28  A    between atoms: _63  and  _64
REMARK   29  A    between atoms: _69  and  _70
REMARK   30  A    between atoms: _72  and  _74
REMARK   31  A    between atoms: _74  and  _75
REMARK   32  A    between atoms: _74  and  _77
REMARK   33  A    between atoms: _77  and  _78
REMARK   34  A    between atoms: _81  and  _82
REMARK   35  A    between atoms: _87  and  _89
REMARK   36  A    between atoms: _89  and  _90
REMARK   37  A    between atoms: _89  and  _92
REMARK   38  A    between atoms: _92  and  _93
REMARK   39  A    between atoms: _93  and  _94
REMARK   40  A    between atoms: _94  and  _95
REMARK   41  A    between atoms: _95  and  _96
REMARK   42  A    between atoms: _100  and  _102
REMARK   43  A    between atoms: _102  and  _103
REMARK   44  A    between atoms: _102  and  _105
REMARK   45  A    between atoms: _105  and  _106
REMARK   46  A    between atoms: _106  and  _107
REMARK   47  A    between atoms: _112  and  _114
REMARK   48  A    between atoms: _114  and  _115
REMARK   49  A    between atoms: _114  and  _117
REMARK   50  A    between atoms: _117  and  _118
REMARK   51  A    between atoms: _118  and  _119
REMARK   52  A    between atoms: _119  and  _120
REMARK   53  A    between atoms: _129  and  _131
REMARK   54  A    between atoms: _131  and  _132
REMARK   55  A    between atoms: _131  and  _134
REMARK   56  A    between atoms: _137  and  _139
REMARK   57  A    between atoms: _139  and  _140
REMARK   58  A    between atoms: _139  and  _142
REMARK   59  A    between atoms: _142  and  _143
REMARK   60  A    between atoms: _146  and  _148
REMARK   61  A    between atoms: _148  and  _149
REMARK   62  A    between atoms: _148  and  _151
REMARK   63  A    between atoms: _151  and  _152
REMARK   64  A    between atoms: _155  and  _157
REMARK   65  A    between atoms: _157  and  _158
REMARK   66  A    between atoms: _157  and  _160
REMARK   67  A    between atoms: _160  and  _161
REMARK   68  A    between atoms: _163  and  _165
REMARK   69  A    between atoms: _165  and  _166
REMARK   70  A    between atoms: _165  and  _168
REMARK   71  A    between atoms: _168  and  _169
REMARK   72  A    between atoms: _172  and  _174
REMARK   73  A    between atoms: _174  and  _175
REMARK   74  A    between atoms: _174  and  _177
REMARK   75  A    between atoms: _177  and  _178
REMARK   76  A    between atoms: _180  and  _182
REMARK   77  A    between atoms: _182  and  _183
REMARK   78  A    between atoms: _182  and  _185
REMARK   79  A    between atoms: _185  and  _186
REMARK   80  A    between atoms: _191  and  _193
REMARK   81  A    between atoms: _193  and  _194
REMARK   82  A    between atoms: _193  and  _196
REMARK   83  A    between atoms: _196  and  _197
REMARK   84  A    between atoms: _200  and  _202
REMARK   85  A    between atoms: _202  and  _203
REMARK   86  A    between atoms: _202  and  _205
REMARK   87  A    between atoms: _205  and  _206
REMARK   88  A    between atoms: _211  and  _213
REMARK   89  A    between atoms: _213  and  _214
REMARK   90  A    between atoms: _216  and  _218
REMARK   91  A    between atoms: _218  and  _219
REMARK   92  A    between atoms: _218  and  _221
REMARK   93  A    between atoms: _221  and  _222
REMARK   94  A    between atoms: _225  and  _227
REMARK   95  A    between atoms: _227  and  _228
REMARK   96  A    between atoms: _227  and  _230
REMARK   97  A    between atoms: _230  and  _231
REMARK   98  A    between atoms: _234  and  _236
REMARK   99  A    between atoms: _236  and  _237
REMARK  100  A    between atoms: _236  and  _239
REMARK  101  A    between atoms: _239  and  _240
REMARK  102  A    between atoms: _242  and  _244
REMARK  103  A    between atoms: _244  and  _245
REMARK  104  A    between atoms: _244  and  _247
REMARK  105  A    between atoms: _249  and  _251
REMARK  106  A    between atoms: _251  and  _252
REMARK  107  A    between atoms: _251  and  _254
REMARK  108  A    between atoms: _254  and  _255
REMARK  109  A    between atoms: _257  and  _259
REMARK  110  A    between atoms: _259  and  _260
REMARK  111  A    between atoms: _259  and  _262
REMARK  112  A    between atoms: _262  and  _263
REMARK  113  A    between atoms: _265  and  _267
REMARK  114  A    between atoms: _267  and  _268
REMARK  115  A    between atoms: _267  and  _270
REMARK  116  A    between atoms: _270  and  _271
REMARK  117  A    between atoms: _276  and  _278
REMARK  118  A    between atoms: _278  and  _279
REMARK  119  A    between atoms: _278  and  _281
REMARK  120  A    between atoms: _281  and  _282
REMARK  121  A    between atoms: _287  and  _288
REMARK  122  A    between atoms: _290  and  _292
REMARK  123  A    between atoms: _292  and  _293
REMARK  124  A    between atoms: _292  and  _295
REMARK  125  A    between atoms: _295  and  _296
REMARK  126  A    between atoms: _299  and  _301
REMARK  127  A    between atoms: _301  and  _302
REMARK  128  A    between atoms: _301  and  _304
REMARK  129  A    between atoms: _304  and  _305
REMARK  130  A    between atoms: _308  and  _310
REMARK  131  A    between atoms: _310  and  _311
REMARK  132  A    between atoms: _310  and  _313
REMARK  133  A    between atoms: _313  and  _314
REMARK  134  A    between atoms: _314  and  _315
REMARK  135  A    between atoms: _315  and  _316
REMARK  136  A    between atoms: _326  and  _327
REMARK  137  A    between atoms: _332  and  _334
REMARK  138  A    between atoms: _334  and  _335
REMARK  139  A    between atoms: _334  and  _337
REMARK  140  A    between atoms: _337  and  _338
REMARK  141  A    between atoms: _338  and  _339
REMARK  142  A    between atoms: _339  and  _340
REMARK  143  A    between atoms: _349  and  _351
REMARK  144  A    between atoms: _351  and  _352
REMARK  145  A    between atoms: _351  and  _354
REMARK  146  A    between atoms: _354  and  _355
REMARK  147  A    between atoms: _355  and  _356
REMARK  148  A    between atoms: _359  and  _361
REMARK  149  A    between atoms: _361  and  _362
REMARK  150  A    between atoms: _361  and  _364
REMARK  151  A    between atoms: _364  and  _365
REMARK  152  A    between atoms: _368  and  _370
REMARK  153  A    between atoms: _370  and  _371
REMARK  154  A    between atoms: _370  and  _373
REMARK  155  A    between atoms: _373  and  _374
REMARK  156  A    between atoms: _379  and  _381
REMARK  157  A    between atoms: _381  and  _382
REMARK  158  A    between atoms: _381  and  _384
REMARK  159  A    between atoms: _384  and  _385
REMARK  160  A    between atoms: _387  and  _389
REMARK  161  A    between atoms: _389  and  _390
REMARK  162  A    between atoms: _389  and  _392
REMARK  163  A    between atoms: _392  and  _393
REMARK  164  A    between atoms: _403  and  _405
REMARK  165  A    between atoms: _405  and  _406
REMARK  166  A    between atoms: _405  and  _408
REMARK  167  A    between atoms: _408  and  _409
REMARK  168  A    between atoms: _412  and  _414
REMARK  169  A    between atoms: _414  and  _415
REMARK  170  A    between atoms: _417  and  _419
REMARK  171  A    between atoms: _419  and  _420
REMARK  172  A    between atoms: _419  and  _422
REMARK  173  A    between atoms: _422  and  _423
REMARK  174  A    between atoms: _428  and  _430
REMARK  175  A    between atoms: _430  and  _431
REMARK  176  A    between atoms: _430  and  _433
REMARK  177  A    between atoms: _433  and  _434
REMARK  178  A    between atoms: _437  and  _439
REMARK  179  A    between atoms: _439  and  _440
REMARK  180  A    between atoms: _439  and  _442
REMARK  181  A    between atoms: _442  and  _443
REMARK  182  A    between atoms: _446  and  _448
REMARK  183  A    between atoms: _448  and  _449
REMARK  184  A    between atoms: _448  and  _451
REMARK  185  A    between atoms: _451  and  _452
REMARK  186  A    between atoms: _452  and  _453
REMARK  187  A    between atoms: _455  and  _457
REMARK  188  A    between atoms: _457  and  _458
REMARK  189  A    between atoms: _457  and  _460
REMARK  190  A    between atoms: _460  and  _461
REMARK  191  A    between atoms: _466  and  _467
REMARK  192  A    between atoms: _469  and  _471
REMARK  193  A    between atoms: _471  and  _472
REMARK  194  A    between atoms: _476  and  _477
REMARK  195  A    between atoms: _482  and  _484
REMARK  196  A    between atoms: _484  and  _485
REMARK  197  A    between atoms: _484  and  _487
REMARK  198  A    between atoms: _487  and  _488
REMARK  199  A    between atoms: _491  and  _493
REMARK  200  A    between atoms: _493  and  _494
REMARK  201  A    between atoms: _493  and  _496
REMARK  202  A    between atoms: _496  and  _497
REMARK  203  A    between atoms: _507  and  _509
REMARK  204  A    between atoms: _509  and  _510
REMARK  205  A    between atoms: _509  and  _512
REMARK  206  A    between atoms: _514  and  _516
REMARK  207  A    between atoms: _516  and  _517
REMARK  208  A    between atoms: _516  and  _519
REMARK  209  A    between atoms: _519  and  _520
REMARK  210  A    between atoms: _520  and  _521
REMARK  211  A    between atoms: _526  and  _528
REMARK  212  A    between atoms: _528  and  _529
REMARK  213  A    between atoms: _528  and  _531
REMARK  214  A    between atoms: _531  and  _532
REMARK  215  A    between atoms: _535  and  _537
REMARK  216  A    between atoms: _537  and  _538
REMARK  217  A    between atoms: _537  and  _540
REMARK  218  A    between atoms: _540  and  _541
REMARK  219  A    between atoms: _546  and  _547
REMARK  220  A    between atoms: _549  and  _551
REMARK  221  A    between atoms: _551  and  _552
REMARK  222  A    between atoms: _554  and  _556
REMARK  223  A    between atoms: _556  and  _557
REMARK  224  A    between atoms: _560  and  _562
REMARK  225  A    between atoms: _562  and  _563
REMARK  226  A    between atoms: _562  and  _565
REMARK  227  A    between atoms: _567  and  _569
REMARK  228  A    between atoms: _569  and  _570
REMARK  229  A    between atoms: _569  and  _572
REMARK  230  A    between atoms: _572  and  _573
REMARK  231  A    between atoms: _578  and  _579
REMARK  232  A    between atoms: _581  and  _583
REMARK  233  A    between atoms: _583  and  _584
REMARK  234  A    between atoms: _583  and  _586
REMARK  235  A    between atoms: _586  and  _587
REMARK  236  A    between atoms: _590  and  _592
REMARK  237  A    between atoms: _592  and  _593
REMARK  238  A    between atoms: _592  and  _595
REMARK  239  A    between atoms: _595  and  _596
REMARK  240  A    between atoms: _601  and  _603
REMARK  241  A    between atoms: _603  and  _604
REMARK  242  A    between atoms: _603  and  _606
REMARK  243  A    between atoms: _606  and  _607
REMARK  244  A    between atoms: _617  and  _619
REMARK  245  A    between atoms: _619  and  _620
REMARK  246  A    between atoms: _619  and  _622
REMARK  247  A    between atoms: _622  and  _623
REMARK  248  A    between atoms: _629  and  _631
REMARK  249  A    between atoms: _631  and  _632
REMARK  250  A    between atoms: _635  and  _637
REMARK  251  A    between atoms: _637  and  _638
REMARK  252  A    between atoms: _640  and  _642
REMARK  253  A    between atoms: _642  and  _643
REMARK  254  A    between atoms: _642  and  _645
REMARK  255  A    between atoms: _645  and  _646
REMARK  256  A    between atoms: _651  and  _652
REMARK  257  A    between atoms: _654  and  _656
REMARK  258  A    between atoms: _656  and  _657
REMARK  259  A    between atoms: _656  and  _659
REMARK  260  A    between atoms: _659  and  _660
REMARK  261  A    between atoms: _662  and  _664
REMARK  262  A    between atoms: _664  and  _665
REMARK                            x       y       z     vdW  Elec       q    Type
REMARK                         _______ _______ _______ _____ _____    ______ ____
ROOT
ATOM      1  O   HOH     1     -24.938   0.717  32.923  0.00  0.00    +0.000 OA
ENDROOT
TORSDOF 0
REMARK  Name = ../refined-set-2016/3hky/3hky_pocket.pdb
REMARK  262 active torsions:
REMARK  status: ('A' for Active; 'I' for Inactive)
REMARK    1  A    between atoms: _1  and  _3
REMARK    2  A    between atoms: _3  and  _4
REMARK    3  A    between atoms: _3  and  _6
REMARK    4  A    between atoms: _6  and  _7
REMARK    5  A    between atoms: _7  and  _8
REMARK    6  A    between atoms: _8  and  _9
REMARK    7  A    between atoms: _9  and  _10
REMARK    8  A    between atoms: _14  and  _16
REMARK    9  A    between atoms: _16  and  _17
REMARK   10  A    between atoms: _16  and  _19
REMARK   11  A    between atoms: _19  and  _20
REMARK   12  A    between atoms: _20  and  _21
REMARK   13  A    between atoms: _24  and  _26
REMARK   14  A    between atoms: _26  and  _27
REMARK   15  A    between atoms: _26  and  _29
REMARK   16  A    between atoms: _29  and  _30
REMARK   17  A    between atoms: _30  and  _31
REMARK   18  A    between atoms: _31  and  _32
REMARK   19  A    between atoms: _41  and  _43
REMARK   20  A    between atoms: _43  and  _44
REMARK   21  A    between atoms: _46  and  _48
REMARK   22  A    between atoms: _48  and  _49
REMARK   23  A    between atoms: _48  and  _51
REMARK   24  A    between atoms: _51  and  _52
REMARK   25  A    between atoms: _58  and  _60
REMARK   26  A    between atoms: _60  and  _61
REMARK   27  A    between atoms: _60  and  _63
REMARK   28  A    between atoms: _63  and  _64
REMARK   29  A    between atoms: _69  and  _70
REMARK   30  A    between atoms: _72  and  _74
REMARK   31  A    between atoms: _74  and  _75
REMARK   32  A    between atoms: _74  and  _77
REMARK   33  A    between atoms: _77  and  _78
REMARK   34  A    between atoms: _81  and  _82
REMARK   35  A    between atoms: _87  and  _89
REMARK   36  A    between atoms: _89  and  _90
REMARK   37  A    between atoms: _89  and  _92
REMARK   38  A    between atoms: _92  and  _93
REMARK   39  A    between atoms: _93  and  _94
REMARK   40  A    between atoms: _94  and  _95
REMARK   41  A    between atoms: _95  and  _96
REMARK   42  A    between atoms: _100  and  _102
REMARK   43  A    between atoms: _102  and  _103
REMARK   44  A    between atoms: _102  and  _105
REMARK   45  A    between atoms: _105  and  _106
REMARK   46  A    between atoms: _106  and  _107
REMARK   47  A    between atoms: _112  and  _114
REMARK   48  A    between atoms: _114  and  _115
REMARK   49  A    between atoms: _114  and  _117
REMARK   50  A    between atoms: _117  and  _118
REMARK   51  A    between atoms: _118  and  _119
REMARK   52  A    between atoms: _119  and  _120
REMARK   53  A    between atoms: _129  and  _131
REMARK   54  A    between atoms: _131  and  _132
REMARK   55  A    between atoms: _131  and  _134
REMARK   56  A    between atoms: _137  and  _139
REMARK   57  A    between atoms: _139  and  _140
REMARK   58  A    between atoms: _139  and  _142
REMARK   59  A    between atoms: _142  and  _143
REMARK   60  A    between atoms: _146  and  _148
REMARK   61  A    between atoms: _148  and  _149
REMARK   62  A    between atoms: _148  and  _151
REMARK   63  A    between atoms: _151  and  _152
REMARK   64  A    between atoms: _155  and  _157
REMARK   65  A    between atoms: _157  and  _158
REMARK   66  A    between atoms: _157  and  _160
REMARK   67  A    between atoms: _160  and  _161
REMARK   68  A    between atoms: _163  and  _165
REMARK   69  A    between atoms: _165  and  _166
REMARK   70  A    between atoms: _165  and  _168
REMARK   71  A    between atoms: _168  and  _169
REMARK   72  A    between atoms: _172  and  _174
REMARK   73  A    between atoms: _174  and  _175
REMARK   74  A    between atoms: _174  and  _177
REMARK   75  A    between atoms: _177  and  _178
REMARK   76  A    between atoms: _180  and  _182
REMARK   77  A    between atoms: _182  and  _183
REMARK   78  A    between atoms: _182  and  _185
REMARK   79  A    between atoms: _185  and  _186
REMARK   80  A    between atoms: _191  and  _193
REMARK   81  A    between atoms: _193  and  _194
REMARK   82  A    between atoms: _193  and  _196
REMARK   83  A    between atoms: _196  and  _197
REMARK   84  A    between atoms: _200  and  _202
REMARK   85  A    between atoms: _202  and  _203
REMARK   86  A    between atoms: _202  and  _205
REMARK   87  A    between atoms: _205  and  _206
REMARK   88  A    between atoms: _211  and  _213
REMARK   89  A    between atoms: _213  and  _214
REMARK   90  A    between atoms: _216  and  _218
REMARK   91  A    between atoms: _218  and  _219
REMARK   92  A    between atoms: _218  and  _221
REMARK   93  A    between atoms: _221  and  _222
REMARK   94  A    between atoms: _225  and  _227
REMARK   95  A    between atoms: _227  and  _228
REMARK   96  A    between atoms: _227  and  _230
REMARK   97  A    between atoms: _230  and  _231
REMARK   98  A    between atoms: _234  and  _236
REMARK   99  A    between atoms: _236  and  _237
REMARK  100  A    between atoms: _236  and  _239
REMARK  101  A    between atoms: _239  and  _240
REMARK  102  A    between atoms: _242  and  _244
REMARK  103  A    between atoms: _244  and  _245
REMARK  104  A    between atoms: _244  and  _247
REMARK  105  A    between atoms: _249  and  _251
REMARK  106  A    between atoms: _251  and  _252
REMARK  107  A    between atoms: _251  and  _254
REMARK  108  A    between atoms: _254  and  _255
REMARK  109  A    between atoms: _257  and  _259
REMARK  110  A    between atoms: _259  and  _260
REMARK  111  A    between atoms: _259  and  _262
REMARK  112  A    between atoms: _262  and  _263
REMARK  113  A    between atoms: _265  and  _267
REMARK  114  A    between atoms: _267  and  _268
REMARK  115  A    between atoms: _267  and  _270
REMARK  116  A    between atoms: _270  and  _271
REMARK  117  A    between atoms: _276  and  _278
REMARK  118  A    between atoms: _278  and  _279
REMARK  119  A    between atoms: _278  and  _281
REMARK  120  A    between atoms: _281  and  _282
REMARK  121  A    between atoms: _287  and  _288
REMARK  122  A    between atoms: _290  and  _292
REMARK  123  A    between atoms: _292  and  _293
REMARK  124  A    between atoms: _292  and  _295
REMARK  125  A    between atoms: _295  and  _296
REMARK  126  A    between atoms: _299  and  _301
REMARK  127  A    between atoms: _301  and  _302
REMARK  128  A    between atoms: _301  and  _304
REMARK  129  A    between atoms: _304  and  _305
REMARK  130  A    between atoms: _308  and  _310
REMARK  131  A    between atoms: _310  and  _311
REMARK  132  A    between atoms: _310  and  _313
REMARK  133  A    between atoms: _313  and  _314
REMARK  134  A    between atoms: _314  and  _315
REMARK  135  A    between atoms: _315  and  _316
REMARK  136  A    between atoms: _326  and  _327
REMARK  137  A    between atoms: _332  and  _334
REMARK  138  A    between atoms: _334  and  _335
REMARK  139  A    between atoms: _334  and  _337
REMARK  140  A    between atoms: _337  and  _338
REMARK  141  A    between atoms: _338  and  _339
REMARK  142  A    between atoms: _339  and  _340
REMARK  143  A    between atoms: _349  and  _351
REMARK  144  A    between atoms: _351  and  _352
REMARK  145  A    between atoms: _351  and  _354
REMARK  146  A    between atoms: _354  and  _355
REMARK  147  A    between atoms: _355  and  _356
REMARK  148  A    between atoms: _359  and  _361
REMARK  149  A    between atoms: _361  and  _362
REMARK  150  A    between atoms: _361  and  _364
REMARK  151  A    between atoms: _364  and  _365
REMARK  152  A    between atoms: _368  and  _370
REMARK  153  A    between atoms: _370  and  _371
REMARK  154  A    between atoms: _370  and  _373
REMARK  155  A    between atoms: _373  and  _374
REMARK  156  A    between atoms: _379  and  _381
REMARK  157  A    between atoms: _381  and  _382
REMARK  158  A    between atoms: _381  and  _384
REMARK  159  A    between atoms: _384  and  _385
REMARK  160  A    between atoms: _387  and  _389
REMARK  161  A    between atoms: _389  and  _390
REMARK  162  A    between atoms: _389  and  _392
REMARK  163  A    between atoms: _392  and  _393
REMARK  164  A    between atoms: _403  and  _405
REMARK  165  A    between atoms: _405  and  _406
REMARK  166  A    between atoms: _405  and  _408
REMARK  167  A    between atoms: _408  and  _409
REMARK  168  A    between atoms: _412  and  _414
REMARK  169  A    between atoms: _414  and  _415
REMARK  170  A    between atoms: _417  and  _419
REMARK  171  A    between atoms: _419  and  _420
REMARK  172  A    between atoms: _419  and  _422
REMARK  173  A    between atoms: _422  and  _423
REMARK  174  A    between atoms: _428  and  _430
REMARK  175  A    between atoms: _430  and  _431
REMARK  176  A    between atoms: _430  and  _433
REMARK  177  A    between atoms: _433  and  _434
REMARK  178  A    between atoms: _437  and  _439
REMARK  179  A    between atoms: _439  and  _440
REMARK  180  A    between atoms: _439  and  _442
REMARK  181  A    between atoms: _442  and  _443
REMARK  182  A    between atoms: _446  and  _448
REMARK  183  A    between atoms: _448  and  _449
REMARK  184  A    between atoms: _448  and  _451
REMARK  185  A    between atoms: _451  and  _452
REMARK  186  A    between atoms: _452  and  _453
REMARK  187  A    between atoms: _455  and  _457
REMARK  188  A    between atoms: _457  and  _458
REMARK  189  A    between atoms: _457  and  _460
REMARK  190  A    between atoms: _460  and  _461
REMARK  191  A    between atoms: _466  and  _467
REMARK  192  A    between atoms: _469  and  _471
REMARK  193  A    between atoms: _471  and  _472
REMARK  194  A    between atoms: _476  and  _477
REMARK  195  A    between atoms: _482  and  _484
REMARK  196  A    between atoms: _484  and  _485
REMARK  197  A    between atoms: _484  and  _487
REMARK  198  A    between atoms: _487  and  _488
REMARK  199  A    between atoms: _491  and  _493
REMARK  200  A    between atoms: _493  and  _494
REMARK  201  A    between atoms: _493  and  _496
REMARK  202  A    between atoms: _496  and  _497
REMARK  203  A    between atoms: _507  and  _509
REMARK  204  A    between atoms: _509  and  _510
REMARK  205  A    between atoms: _509  and  _512
REMARK  206  A    between atoms: _514  and  _516
REMARK  207  A    between atoms: _516  and  _517
REMARK  208  A    between atoms: _516  and  _519
REMARK  209  A    between atoms: _519  and  _520
REMARK  210  A    between atoms: _520  and  _521
REMARK  211  A    between atoms: _526  and  _528
REMARK  212  A    between atoms: _528  and  _529
REMARK  213  A    between atoms: _528  and  _531
REMARK  214  A    between atoms: _531  and  _532
REMARK  215  A    between atoms: _535  and  _537
REMARK  216  A    between atoms: _537  and  _538
REMARK  217  A    between atoms: _537  and  _540
REMARK  218  A    between atoms: _540  and  _541
REMARK  219  A    between atoms: _546  and  _547
REMARK  220  A    between atoms: _549  and  _551
REMARK  221  A    between atoms: _551  and  _552
REMARK  222  A    between atoms: _554  and  _556
REMARK  223  A    between atoms: _556  and  _557
REMARK  224  A    between atoms: _560  and  _562
REMARK  225  A    between atoms: _562  and  _563
REMARK  226  A    between atoms: _562  and  _565
REMARK  227  A    between atoms: _567  and  _569
REMARK  228  A    between atoms: _569  and  _570
REMARK  229  A    between atoms: _569  and  _572
REMARK  230  A    between atoms: _572  and  _573
REMARK  231  A    between atoms: _578  and  _579
REMARK  232  A    between atoms: _581  and  _583
REMARK  233  A    between atoms: _583  and  _584
REMARK  234  A    between atoms: _583  and  _586
REMARK  235  A    between atoms: _586  and  _587
REMARK  236  A    between atoms: _590  and  _592
REMARK  237  A    between atoms: _592  and  _593
REMARK  238  A    between atoms: _592  and  _595
REMARK  239  A    between atoms: _595  and  _596
REMARK  240  A    between atoms: _601  and  _603
REMARK  241  A    between atoms: _603  and  _604
REMARK  242  A    between atoms: _603  and  _606
REMARK  243  A    between atoms: _606  and  _607
REMARK  244  A    between atoms: _617  and  _619
REMARK  245  A    between atoms: _619  and  _620
REMARK  246  A    between atoms: _619  and  _622
REMARK  247  A    between atoms: _622  and  _623
REMARK  248  A    between atoms: _629  and  _631
REMARK  249  A    between atoms: _631  and  _632
REMARK  250  A    between atoms: _635  and  _637
REMARK  251  A    between atoms: _637  and  _638
REMARK  252  A    between atoms: _640  and  _642
REMARK  253  A    between atoms: _642  and  _643
REMARK  254  A    between atoms: _642  and  _645
REMARK  255  A    between atoms: _645  and  _646
REMARK  256  A    between atoms: _651  and  _652
REMARK  257  A    between atoms: _654  and  _656
REMARK  258  A    between atoms: _656  and  _657
REMARK  259  A    between atoms: _656  and  _659
REMARK  260  A    between atoms: _659  and  _660
REMARK  261  A    between atoms: _662  and  _664
REMARK  262  A    between atoms: _664  and  _665
REMARK                            x       y       z     vdW  Elec       q    Type
REMARK                         _______ _______ _______ _____ _____    ______ ____
ROOT
ATOM      1  O   HOH     1     -29.259 -13.393  41.769  0.00  0.00    +0.000 OA
ENDROOT
TORSDOF 0
REMARK  Name = ../refined-set-2016/3hky/3hky_pocket.pdb
REMARK  262 active torsions:
REMARK  status: ('A' for Active; 'I' for Inactive)
REMARK    1  A    between atoms: _1  and  _3
REMARK    2  A    between atoms: _3  and  _4
REMARK    3  A    between atoms: _3  and  _6
REMARK    4  A    between atoms: _6  and  _7
REMARK    5  A    between atoms: _7  and  _8
REMARK    6  A    between atoms: _8  and  _9
REMARK    7  A    between atoms: _9  and  _10
REMARK    8  A    between atoms: _14  and  _16
REMARK    9  A    between atoms: _16  and  _17
REMARK   10  A    between atoms: _16  and  _19
REMARK   11  A    between atoms: _19  and  _20
REMARK   12  A    between atoms: _20  and  _21
REMARK   13  A    between atoms: _24  and  _26
REMARK   14  A    between atoms: _26  and  _27
REMARK   15  A    between atoms: _26  and  _29
REMARK   16  A    between atoms: _29  and  _30
REMARK   17  A    between atoms: _30  and  _31
REMARK   18  A    between atoms: _31  and  _32
REMARK   19  A    between atoms: _41  and  _43
REMARK   20  A    between atoms: _43  and  _44
REMARK   21  A    between atoms: _46  and  _48
REMARK   22  A    between atoms: _48  and  _49
REMARK   23  A    between atoms: _48  and  _51
REMARK   24  A    between atoms: _51  and  _52
REMARK   25  A    between atoms: _58  and  _60
REMARK   26  A    between atoms: _60  and  _61
REMARK   27  A    between atoms: _60  and  _63
REMARK   28  A    between atoms: _63  and  _64
REMARK   29  A    between atoms: _69  and  _70
REMARK   30  A    between atoms: _72  and  _74
REMARK   31  A    between atoms: _74  and  _75
REMARK   32  A    between atoms: _74  and  _77
REMARK   33  A    between atoms: _77  and  _78
REMARK   34  A    between atoms: _81  and  _82
REMARK   35  A    between atoms: _87  and  _89
REMARK   36  A    between atoms: _89  and  _90
REMARK   37  A    between atoms: _89  and  _92
REMARK   38  A    between atoms: _92  and  _93
REMARK   39  A    between atoms: _93  and  _94
REMARK   40  A    between atoms: _94  and  _95
REMARK   41  A    between atoms: _95  and  _96
REMARK   42  A    between atoms: _100  and  _102
REMARK   43  A    between atoms: _102  and  _103
REMARK   44  A    between atoms: _102  and  _105
REMARK   45  A    between atoms: _105  and  _106
REMARK   46  A    between atoms: _106  and  _107
REMARK   47  A    between atoms: _112  and  _114
REMARK   48  A    between atoms: _114  and  _115
REMARK   49  A    between atoms: _114  and  _117
REMARK   50  A    between atoms: _117  and  _118
REMARK   51  A    between atoms: _118  and  _119
REMARK   52  A    between atoms: _119  and  _120
REMARK   53  A    between atoms: _129  and  _131
REMARK   54  A    between atoms: _131  and  _132
REMARK   55  A    between atoms: _131  and  _134
REMARK   56  A    between atoms: _137  and  _139
REMARK   57  A    between atoms: _139  and  _140
REMARK   58  A    between atoms: _139  and  _142
REMARK   59  A    between atoms: _142  and  _143
REMARK   60  A    between atoms: _146  and  _148
REMARK   61  A    between atoms: _148  and  _149
REMARK   62  A    between atoms: _148  and  _151
REMARK   63  A    between atoms: _151  and  _152
REMARK   64  A    between atoms: _155  and  _157
REMARK   65  A    between atoms: _157  and  _158
REMARK   66  A    between atoms: _157  and  _160
REMARK   67  A    between atoms: _160  and  _161
REMARK   68  A    between atoms: _163  and  _165
REMARK   69  A    between atoms: _165  and  _166
REMARK   70  A    between atoms: _165  and  _168
REMARK   71  A    between atoms: _168  and  _169
REMARK   72  A    between atoms: _172  and  _174
REMARK   73  A    between atoms: _174  and  _175
REMARK   74  A    between atoms: _174  and  _177
REMARK   75  A    between atoms: _177  and  _178
REMARK   76  A    between atoms: _180  and  _182
REMARK   77  A    between atoms: _182  and  _183
REMARK   78  A    between atoms: _182  and  _185
REMARK   79  A    between atoms: _185  and  _186
REMARK   80  A    between atoms: _191  and  _193
REMARK   81  A    between atoms: _193  and  _194
REMARK   82  A    between atoms: _193  and  _196
REMARK   83  A    between atoms: _196  and  _197
REMARK   84  A    between atoms: _200  and  _202
REMARK   85  A    between atoms: _202  and  _203
REMARK   86  A    between atoms: _202  and  _205
REMARK   87  A    between atoms: _205  and  _206
REMARK   88  A    between atoms: _211  and  _213
REMARK   89  A    between atoms: _213  and  _214
REMARK   90  A    between atoms: _216  and  _218
REMARK   91  A    between atoms: _218  and  _219
REMARK   92  A    between atoms: _218  and  _221
REMARK   93  A    between atoms: _221  and  _222
REMARK   94  A    between atoms: _225  and  _227
REMARK   95  A    between atoms: _227  and  _228
REMARK   96  A    between atoms: _227  and  _230
REMARK   97  A    between atoms: _230  and  _231
REMARK   98  A    between atoms: _234  and  _236
REMARK   99  A    between atoms: _236  and  _237
REMARK  100  A    between atoms: _236  and  _239
REMARK  101  A    between atoms: _239  and  _240
REMARK  102  A    between atoms: _242  and  _244
REMARK  103  A    between atoms: _244  and  _245
REMARK  104  A    between atoms: _244  and  _247
REMARK  105  A    between atoms: _249  and  _251
REMARK  106  A    between atoms: _251  and  _252
REMARK  107  A    between atoms: _251  and  _254
REMARK  108  A    between atoms: _254  and  _255
REMARK  109  A    between atoms: _257  and  _259
REMARK  110  A    between atoms: _259  and  _260
REMARK  111  A    between atoms: _259  and  _262
REMARK  112  A    between atoms: _262  and  _263
REMARK  113  A    between atoms: _265  and  _267
REMARK  114  A    between atoms: _267  and  _268
REMARK  115  A    between atoms: _267  and  _270
REMARK  116  A    between atoms: _270  and  _271
REMARK  117  A    between atoms: _276  and  _278
REMARK  118  A    between atoms: _278  and  _279
REMARK  119  A    between atoms: _278  and  _281
REMARK  120  A    between atoms: _281  and  _282
REMARK  121  A    between atoms: _287  and  _288
REMARK  122  A    between atoms: _290  and  _292
REMARK  123  A    between atoms: _292  and  _293
REMARK  124  A    between atoms: _292  and  _295
REMARK  125  A    between atoms: _295  and  _296
REMARK  126  A    between atoms: _299  and  _301
REMARK  127  A    between atoms: _301  and  _302
REMARK  128  A    between atoms: _301  and  _304
REMARK  129  A    between atoms: _304  and  _305
REMARK  130  A    between atoms: _308  and  _310
REMARK  131  A    between atoms: _310  and  _311
REMARK  132  A    between atoms: _310  and  _313
REMARK  133  A    between atoms: _313  and  _314
REMARK  134  A    between atoms: _314  and  _315
REMARK  135  A    between atoms: _315  and  _316
REMARK  136  A    between atoms: _326  and  _327
REMARK  137  A    between atoms: _332  and  _334
REMARK  138  A    between atoms: _334  and  _335
REMARK  139  A    between atoms: _334  and  _337
REMARK  140  A    between atoms: _337  and  _338
REMARK  141  A    between atoms: _338  and  _339
REMARK  142  A    between atoms: _339  and  _340
REMARK  143  A    between atoms: _349  and  _351
REMARK  144  A    between atoms: _351  and  _352
REMARK  145  A    between atoms: _351  and  _354
REMARK  146  A    between atoms: _354  and  _355
REMARK  147  A    between atoms: _355  and  _356
REMARK  148  A    between atoms: _359  and  _361
REMARK  149  A    between atoms: _361  and  _362
REMARK  150  A    between atoms: _361  and  _364
REMARK  151  A    between atoms: _364  and  _365
REMARK  152  A    between atoms: _368  and  _370
REMARK  153  A    between atoms: _370  and  _371
REMARK  154  A    between atoms: _370  and  _373
REMARK  155  A    between atoms: _373  and  _374
REMARK  156  A    between atoms: _379  and  _381
REMARK  157  A    between atoms: _381  and  _382
REMARK  158  A    between atoms: _381  and  _384
REMARK  159  A    between atoms: _384  and  _385
REMARK  160  A    between atoms: _387  and  _389
REMARK  161  A    between atoms: _389  and  _390
REMARK  162  A    between atoms: _389  and  _392
REMARK  163  A    between atoms: _392  and  _393
REMARK  164  A    between atoms: _403  and  _405
REMARK  165  A    between atoms: _405  and  _406
REMARK  166  A    between atoms: _405  and  _408
REMARK  167  A    between atoms: _408  and  _409
REMARK  168  A    between atoms: _412  and  _414
REMARK  169  A    between atoms: _414  and  _415
REMARK  170  A    between atoms: _417  and  _419
REMARK  171  A    between atoms: _419  and  _420
REMARK  172  A    between atoms: _419  and  _422
REMARK  173  A    between atoms: _422  and  _423
REMARK  174  A    between atoms: _428  and  _430
REMARK  175  A    between atoms: _430  and  _431
REMARK  176  A    between atoms: _430  and  _433
REMARK  177  A    between atoms: _433  and  _434
REMARK  178  A    between atoms: _437  and  _439
REMARK  179  A    between atoms: _439  and  _440
REMARK  180  A    between atoms: _439  and  _442
REMARK  181  A    between atoms: _442  and  _443
REMARK  182  A    between atoms: _446  and  _448
REMARK  183  A    between atoms: _448  and  _449
REMARK  184  A    between atoms: _448  and  _451
REMARK  185  A    between atoms: _451  and  _452
REMARK  186  A    between atoms: _452  and  _453
REMARK  187  A    between atoms: _455  and  _457
REMARK  188  A    between atoms: _457  and  _458
REMARK  189  A    between atoms: _457  and  _460
REMARK  190  A    between atoms: _460  and  _461
REMARK  191  A    between atoms: _466  and  _467
REMARK  192  A    between atoms: _469  and  _471
REMARK  193  A    between atoms: _471  and  _472
REMARK  194  A    between atoms: _476  and  _477
REMARK  195  A    between atoms: _482  and  _484
REMARK  196  A    between atoms: _484  and  _485
REMARK  197  A    between atoms: _484  and  _487
REMARK  198  A    between atoms: _487  and  _488
REMARK  199  A    between atoms: _491  and  _493
REMARK  200  A    between atoms: _493  and  _494
REMARK  201  A    between atoms: _493  and  _496
REMARK  202  A    between atoms: _496  and  _497
REMARK  203  A    between atoms: _507  and  _509
REMARK  204  A    between atoms: _509  and  _510
REMARK  205  A    between atoms: _509  and  _512
REMARK  206  A    between atoms: _514  and  _516
REMARK  207  A    between atoms: _516  and  _517
REMARK  208  A    between atoms: _516  and  _519
REMARK  209  A    between atoms: _519  and  _520
REMARK  210  A    between atoms: _520  and  _521
REMARK  211  A    between atoms: _526  and  _528
REMARK  212  A    between atoms: _528  and  _529
REMARK  213  A    between atoms: _528  and  _531
REMARK  214  A    between atoms: _531  and  _532
REMARK  215  A    between atoms: _535  and  _537
REMARK  216  A    between atoms: _537  and  _538
REMARK  217  A    between atoms: _537  and  _540
REMARK  218  A    between atoms: _540  and  _541
REMARK  219  A    between atoms: _546  and  _547
REMARK  220  A    between atoms: _549  and  _551
REMARK  221  A    between atoms: _551  and  _552
REMARK  222  A    between atoms: _554  and  _556
REMARK  223  A    between atoms: _556  and  _557
REMARK  224  A    between atoms: _560  and  _562
REMARK  225  A    between atoms: _562  and  _563
REMARK  226  A    between atoms: _562  and  _565
REMARK  227  A    between atoms: _567  and  _569
REMARK  228  A    between atoms: _569  and  _570
REMARK  229  A    between atoms: _569  and  _572
REMARK  230  A    between atoms: _572  and  _573
REMARK  231  A    between atoms: _578  and  _579
REMARK  232  A    between atoms: _581  and  _583
REMARK  233  A    between atoms: _583  and  _584
REMARK  234  A    between atoms: _583  and  _586
REMARK  235  A    between atoms: _586  and  _587
REMARK  236  A    between atoms: _590  and  _592
REMARK  237  A    between atoms: _592  and  _593
REMARK  238  A    between atoms: _592  and  _595
REMARK  239  A    between atoms: _595  and  _596
REMARK  240  A    between atoms: _601  and  _603
REMARK  241  A    between atoms: _603  and  _604
REMARK  242  A    between atoms: _603  and  _606
REMARK  243  A    between atoms: _606  and  _607
REMARK  244  A    between atoms: _617  and  _619
REMARK  245  A    between atoms: _619  and  _620
REMARK  246  A    between atoms: _619  and  _622
REMARK  247  A    between atoms: _622  and  _623
REMARK  248  A    between atoms: _629  and  _631
REMARK  249  A    between atoms: _631  and  _632
REMARK  250  A    between atoms: _635  and  _637
REMARK  251  A    between atoms: _637  and  _638
REMARK  252  A    between atoms: _640  and  _642
REMARK  253  A    between atoms: _642  and  _643
REMARK  254  A    between atoms: _642  and  _645
REMARK  255  A    between atoms: _645  and  _646
REMARK  256  A    between atoms: _651  and  _652
REMARK  257  A    between atoms: _654  and  _656
REMARK  258  A    between atoms: _656  and  _657
REMARK  259  A    between atoms: _656  and  _659
REMARK  260  A    between atoms: _659  and  _660
REMARK  261  A    between atoms: _662  and  _664
REMARK  262  A    between atoms: _664  and  _665
REMARK                            x       y       z     vdW  Elec       q    Type
REMARK                         _______ _______ _______ _____ _____    ______ ____
ROOT
ATOM      1  O   HOH     1     -27.057  -9.536  40.518  0.00  0.00    +0.000 OA
ENDROOT
TORSDOF 0
REMARK  Name = ../refined-set-2016/3hky/3hky_pocket.pdb
REMARK  262 active torsions:
REMARK  status: ('A' for Active; 'I' for Inactive)
REMARK    1  A    between atoms: _1  and  _3
REMARK    2  A    between atoms: _3  and  _4
REMARK    3  A    between atoms: _3  and  _6
REMARK    4  A    between atoms: _6  and  _7
REMARK    5  A    between atoms: _7  and  _8
REMARK    6  A    between atoms: _8  and  _9
REMARK    7  A    between atoms: _9  and  _10
REMARK    8  A    between atoms: _14  and  _16
REMARK    9  A    between atoms: _16  and  _17
REMARK   10  A    between atoms: _16  and  _19
REMARK   11  A    between atoms: _19  and  _20
REMARK   12  A    between atoms: _20  and  _21
REMARK   13  A    between atoms: _24  and  _26
REMARK   14  A    between atoms: _26  and  _27
REMARK   15  A    between atoms: _26  and  _29
REMARK   16  A    between atoms: _29  and  _30
REMARK   17  A    between atoms: _30  and  _31
REMARK   18  A    between atoms: _31  and  _32
REMARK   19  A    between atoms: _41  and  _43
REMARK   20  A    between atoms: _43  and  _44
REMARK   21  A    between atoms: _46  and  _48
REMARK   22  A    between atoms: _48  and  _49
REMARK   23  A    between atoms: _48  and  _51
REMARK   24  A    between atoms: _51  and  _52
REMARK   25  A    between atoms: _58  and  _60
REMARK   26  A    between atoms: _60  and  _61
REMARK   27  A    between atoms: _60  and  _63
REMARK   28  A    between atoms: _63  and  _64
REMARK   29  A    between atoms: _69  and  _70
REMARK   30  A    between atoms: _72  and  _74
REMARK   31  A    between atoms: _74  and  _75
REMARK   32  A    between atoms: _74  and  _77
REMARK   33  A    between atoms: _77  and  _78
REMARK   34  A    between atoms: _81  and  _82
REMARK   35  A    between atoms: _87  and  _89
REMARK   36  A    between atoms: _89  and  _90
REMARK   37  A    between atoms: _89  and  _92
REMARK   38  A    between atoms: _92  and  _93
REMARK   39  A    between atoms: _93  and  _94
REMARK   40  A    between atoms: _94  and  _95
REMARK   41  A    between atoms: _95  and  _96
REMARK   42  A    between atoms: _100  and  _102
REMARK   43  A    between atoms: _102  and  _103
REMARK   44  A    between atoms: _102  and  _105
REMARK   45  A    between atoms: _105  and  _106
REMARK   46  A    between atoms: _106  and  _107
REMARK   47  A    between atoms: _112  and  _114
REMARK   48  A    between atoms: _114  and  _115
REMARK   49  A    between atoms: _114  and  _117
REMARK   50  A    between atoms: _117  and  _118
REMARK   51  A    between atoms: _118  and  _119
REMARK   52  A    between atoms: _119  and  _120
REMARK   53  A    between atoms: _129  and  _131
REMARK   54  A    between atoms: _131  and  _132
REMARK   55  A    between atoms: _131  and  _134
REMARK   56  A    between atoms: _137  and  _139
REMARK   57  A    between atoms: _139  and  _140
REMARK   58  A    between atoms: _139  and  _142
REMARK   59  A    between atoms: _142  and  _143
REMARK   60  A    between atoms: _146  and  _148
REMARK   61  A    between atoms: _148  and  _149
REMARK   62  A    between atoms: _148  and  _151
REMARK   63  A    between atoms: _151  and  _152
REMARK   64  A    between atoms: _155  and  _157
REMARK   65  A    between atoms: _157  and  _158
REMARK   66  A    between atoms: _157  and  _160
REMARK   67  A    between atoms: _160  and  _161
REMARK   68  A    between atoms: _163  and  _165
REMARK   69  A    between atoms: _165  and  _166
REMARK   70  A    between atoms: _165  and  _168
REMARK   71  A    between atoms: _168  and  _169
REMARK   72  A    between atoms: _172  and  _174
REMARK   73  A    between atoms: _174  and  _175
REMARK   74  A    between atoms: _174  and  _177
REMARK   75  A    between atoms: _177  and  _178
REMARK   76  A    between atoms: _180  and  _182
REMARK   77  A    between atoms: _182  and  _183
REMARK   78  A    between atoms: _182  and  _185
REMARK   79  A    between atoms: _185  and  _186
REMARK   80  A    between atoms: _191  and  _193
REMARK   81  A    between atoms: _193  and  _194
REMARK   82  A    between atoms: _193  and  _196
REMARK   83  A    between atoms: _196  and  _197
REMARK   84  A    between atoms: _200  and  _202
REMARK   85  A    between atoms: _202  and  _203
REMARK   86  A    between atoms: _202  and  _205
REMARK   87  A    between atoms: _205  and  _206
REMARK   88  A    between atoms: _211  and  _213
REMARK   89  A    between atoms: _213  and  _214
REMARK   90  A    between atoms: _216  and  _218
REMARK   91  A    between atoms: _218  and  _219
REMARK   92  A    between atoms: _218  and  _221
REMARK   93  A    between atoms: _221  and  _222
REMARK   94  A    between atoms: _225  and  _227
REMARK   95  A    between atoms: _227  and  _228
REMARK   96  A    between atoms: _227  and  _230
REMARK   97  A    between atoms: _230  and  _231
REMARK   98  A    between atoms: _234  and  _236
REMARK   99  A    between atoms: _236  and  _237
REMARK  100  A    between atoms: _236  and  _239
REMARK  101  A    between atoms: _239  and  _240
REMARK  102  A    between atoms: _242  and  _244
REMARK  103  A    between atoms: _244  and  _245
REMARK  104  A    between atoms: _244  and  _247
REMARK  105  A    between atoms: _249  and  _251
REMARK  106  A    between atoms: _251  and  _252
REMARK  107  A    between atoms: _251  and  _254
REMARK  108  A    between atoms: _254  and  _255
REMARK  109  A    between atoms: _257  and  _259
REMARK  110  A    between atoms: _259  and  _260
REMARK  111  A    between atoms: _259  and  _262
REMARK  112  A    between atoms: _262  and  _263
REMARK  113  A    between atoms: _265  and  _267
REMARK  114  A    between atoms: _267  and  _268
REMARK  115  A    between atoms: _267  and  _270
REMARK  116  A    between atoms: _270  and  _271
REMARK  117  A    between atoms: _276  and  _278
REMARK  118  A    between atoms: _278  and  _279
REMARK  119  A    between atoms: _278  and  _281
REMARK  120  A    between atoms: _281  and  _282
REMARK  121  A    between atoms: _287  and  _288
REMARK  122  A    between atoms: _290  and  _292
REMARK  123  A    between atoms: _292  and  _293
REMARK  124  A    between atoms: _292  and  _295
REMARK  125  A    between atoms: _295  and  _296
REMARK  126  A    between atoms: _299  and  _301
REMARK  127  A    between atoms: _301  and  _302
REMARK  128  A    between atoms: _301  and  _304
REMARK  129  A    between atoms: _304  and  _305
REMARK  130  A    between atoms: _308  and  _310
REMARK  131  A    between atoms: _310  and  _311
REMARK  132  A    between atoms: _310  and  _313
REMARK  133  A    between atoms: _313  and  _314
REMARK  134  A    between atoms: _314  and  _315
REMARK  135  A    between atoms: _315  and  _316
REMARK  136  A    between atoms: _326  and  _327
REMARK  137  A    between atoms: _332  and  _334
REMARK  138  A    between atoms: _334  and  _335
REMARK  139  A    between atoms: _334  and  _337
REMARK  140  A    between atoms: _337  and  _338
REMARK  141  A    between atoms: _338  and  _339
REMARK  142  A    between atoms: _339  and  _340
REMARK  143  A    between atoms: _349  and  _351
REMARK  144  A    between atoms: _351  and  _352
REMARK  145  A    between atoms: _351  and  _354
REMARK  146  A    between atoms: _354  and  _355
REMARK  147  A    between atoms: _355  and  _356
REMARK  148  A    between atoms: _359  and  _361
REMARK  149  A    between atoms: _361  and  _362
REMARK  150  A    between atoms: _361  and  _364
REMARK  151  A    between atoms: _364  and  _365
REMARK  152  A    between atoms: _368  and  _370
REMARK  153  A    between atoms: _370  and  _371
REMARK  154  A    between atoms: _370  and  _373
REMARK  155  A    between atoms: _373  and  _374
REMARK  156  A    between atoms: _379  and  _381
REMARK  157  A    between atoms: _381  and  _382
REMARK  158  A    between atoms: _381  and  _384
REMARK  159  A    between atoms: _384  and  _385
REMARK  160  A    between atoms: _387  and  _389
REMARK  161  A    between atoms: _389  and  _390
REMARK  162  A    between atoms: _389  and  _392
REMARK  163  A    between atoms: _392  and  _393
REMARK  164  A    between atoms: _403  and  _405
REMARK  165  A    between atoms: _405  and  _406
REMARK  166  A    between atoms: _405  and  _408
REMARK  167  A    between atoms: _408  and  _409
REMARK  168  A    between atoms: _412  and  _414
REMARK  169  A    between atoms: _414  and  _415
REMARK  170  A    between atoms: _417  and  _419
REMARK  171  A    between atoms: _419  and  _420
REMARK  172  A    between atoms: _419  and  _422
REMARK  173  A    between atoms: _422  and  _423
REMARK  174  A    between atoms: _428  and  _430
REMARK  175  A    between atoms: _430  and  _431
REMARK  176  A    between atoms: _430  and  _433
REMARK  177  A    between atoms: _433  and  _434
REMARK  178  A    between atoms: _437  and  _439
REMARK  179  A    between atoms: _439  and  _440
REMARK  180  A    between atoms: _439  and  _442
REMARK  181  A    between atoms: _442  and  _443
REMARK  182  A    between atoms: _446  and  _448
REMARK  183  A    between atoms: _448  and  _449
REMARK  184  A    between atoms: _448  and  _451
REMARK  185  A    between atoms: _451  and  _452
REMARK  186  A    between atoms: _452  and  _453
REMARK  187  A    between atoms: _455  and  _457
REMARK  188  A    between atoms: _457  and  _458
REMARK  189  A    between atoms: _457  and  _460
REMARK  190  A    between atoms: _460  and  _461
REMARK  191  A    between atoms: _466  and  _467
REMARK  192  A    between atoms: _469  and  _471
REMARK  193  A    between atoms: _471  and  _472
REMARK  194  A    between atoms: _476  and  _477
REMARK  195  A    between atoms: _482  and  _484
REMARK  196  A    between atoms: _484  and  _485
REMARK  197  A    between atoms: _484  and  _487
REMARK  198  A    between atoms: _487  and  _488
REMARK  199  A    between atoms: _491  and  _493
REMARK  200  A    between atoms: _493  and  _494
REMARK  201  A    between atoms: _493  and  _496
REMARK  202  A    between atoms: _496  and  _497
REMARK  203  A    between atoms: _507  and  _509
REMARK  204  A    between atoms: _509  and  _510
REMARK  205  A    between atoms: _509  and  _512
REMARK  206  A    between atoms: _514  and  _516
REMARK  207  A    between atoms: _516  and  _517
REMARK  208  A    between atoms: _516  and  _519
REMARK  209  A    between atoms: _519  and  _520
REMARK  210  A    between atoms: _520  and  _521
REMARK  211  A    between atoms: _526  and  _528
REMARK  212  A    between atoms: _528  and  _529
REMARK  213  A    between atoms: _528  and  _531
REMARK  214  A    between atoms: _531  and  _532
REMARK  215  A    between atoms: _535  and  _537
REMARK  216  A    between atoms: _537  and  _538
REMARK  217  A    between atoms: _537  and  _540
REMARK  218  A    between atoms: _540  and  _541
REMARK  219  A    between atoms: _546  and  _547
REMARK  220  A    between atoms: _549  and  _551
REMARK  221  A    between atoms: _551  and  _552
REMARK  222  A    between atoms: _554  and  _556
REMARK  223  A    between atoms: _556  and  _557
REMARK  224  A    between atoms: _560  and  _562
REMARK  225  A    between atoms: _562  and  _563
REMARK  226  A    between atoms: _562  and  _565
REMARK  227  A    between atoms: _567  and  _569
REMARK  228  A    between atoms: _569  and  _570
REMARK  229  A    between atoms: _569  and  _572
REMARK  230  A    between atoms: _572  and  _573
REMARK  231  A    between atoms: _578  and  _579
REMARK  232  A    between atoms: _581  and  _583
REMARK  233  A    between atoms: _583  and  _584
REMARK  234  A    between atoms: _583  and  _586
REMARK  235  A    between atoms: _586  and  _587
REMARK  236  A    between atoms: _590  and  _592
REMARK  237  A    between atoms: _592  and  _593
REMARK  238  A    between atoms: _592  and  _595
REMARK  239  A    between atoms: _595  and  _596
REMARK  240  A    between atoms: _601  and  _603
REMARK  241  A    between atoms: _603  and  _604
REMARK  242  A    between atoms: _603  and  _606
REMARK  243  A    between atoms: _606  and  _607
REMARK  244  A    between atoms: _617  and  _619
REMARK  245  A    between atoms: _619  and  _620
REMARK  246  A    between atoms: _619  and  _622
REMARK  247  A    between atoms: _622  and  _623
REMARK  248  A    between atoms: _629  and  _631
REMARK  249  A    between atoms: _631  and  _632
REMARK  250  A    between atoms: _635  and  _637
REMARK  251  A    between atoms: _637  and  _638
REMARK  252  A    between atoms: _640  and  _642
REMARK  253  A    between atoms: _642  and  _643
REMARK  254  A    between atoms: _642  and  _645
REMARK  255  A    between atoms: _645  and  _646
REMARK  256  A    between atoms: _651  and  _652
REMARK  257  A    between atoms: _654  and  _656
REMARK  258  A    between atoms: _656  and  _657
REMARK  259  A    between atoms: _656  and  _659
REMARK  260  A    between atoms: _659  and  _660
REMARK  261  A    between atoms: _662  and  _664
REMARK  262  A    between atoms: _664  and  _665
REMARK                            x       y       z     vdW  Elec       q    Type
REMARK                         _______ _______ _______ _____ _____    ______ ____
ROOT
ATOM      1  O   HOH     1     -26.887 -12.347  41.006  0.00  0.00    +0.000 OA
ENDROOT
TORSDOF 0
REMARK  Name = ../refined-set-2016/3hky/3hky_pocket.pdb
REMARK  262 active torsions:
REMARK  status: ('A' for Active; 'I' for Inactive)
REMARK    1  A    between atoms: _1  and  _3
REMARK    2  A    between atoms: _3  and  _4
REMARK    3  A    between atoms: _3  and  _6
REMARK    4  A    between atoms: _6  and  _7
REMARK    5  A    between atoms: _7  and  _8
REMARK    6  A    between atoms: _8  and  _9
REMARK    7  A    between atoms: _9  and  _10
REMARK    8  A    between atoms: _14  and  _16
REMARK    9  A    between atoms: _16  and  _17
REMARK   10  A    between atoms: _16  and  _19
REMARK   11  A    between atoms: _19  and  _20
REMARK   12  A    between atoms: _20  and  _21
REMARK   13  A    between atoms: _24  and  _26
REMARK   14  A    between atoms: _26  and  _27
REMARK   15  A    between atoms: _26  and  _29
REMARK   16  A    between atoms: _29  and  _30
REMARK   17  A    between atoms: _30  and  _31
REMARK   18  A    between atoms: _31  and  _32
REMARK   19  A    between atoms: _41  and  _43
REMARK   20  A    between atoms: _43  and  _44
REMARK   21  A    between atoms: _46  and  _48
REMARK   22  A    between atoms: _48  and  _49
REMARK   23  A    between atoms: _48  and  _51
REMARK   24  A    between atoms: _51  and  _52
REMARK   25  A    between atoms: _58  and  _60
REMARK   26  A    between atoms: _60  and  _61
REMARK   27  A    between atoms: _60  and  _63
REMARK   28  A    between atoms: _63  and  _64
REMARK   29  A    between atoms: _69  and  _70
REMARK   30  A    between atoms: _72  and  _74
REMARK   31  A    between atoms: _74  and  _75
REMARK   32  A    between atoms: _74  and  _77
REMARK   33  A    between atoms: _77  and  _78
REMARK   34  A    between atoms: _81  and  _82
REMARK   35  A    between atoms: _87  and  _89
REMARK   36  A    between atoms: _89  and  _90
REMARK   37  A    between atoms: _89  and  _92
REMARK   38  A    between atoms: _92  and  _93
REMARK   39  A    between atoms: _93  and  _94
REMARK   40  A    between atoms: _94  and  _95
REMARK   41  A    between atoms: _95  and  _96
REMARK   42  A    between atoms: _100  and  _102
REMARK   43  A    between atoms: _102  and  _103
REMARK   44  A    between atoms: _102  and  _105
REMARK   45  A    between atoms: _105  and  _106
REMARK   46  A    between atoms: _106  and  _107
REMARK   47  A    between atoms: _112  and  _114
REMARK   48  A    between atoms: _114  and  _115
REMARK   49  A    between atoms: _114  and  _117
REMARK   50  A    between atoms: _117  and  _118
REMARK   51  A    between atoms: _118  and  _119
REMARK   52  A    between atoms: _119  and  _120
REMARK   53  A    between atoms: _129  and  _131
REMARK   54  A    between atoms: _131  and  _132
REMARK   55  A    between atoms: _131  and  _134
REMARK   56  A    between atoms: _137  and  _139
REMARK   57  A    between atoms: _139  and  _140
REMARK   58  A    between atoms: _139  and  _142
REMARK   59  A    between atoms: _142  and  _143
REMARK   60  A    between atoms: _146  and  _148
REMARK   61  A    between atoms: _148  and  _149
REMARK   62  A    between atoms: _148  and  _151
REMARK   63  A    between atoms: _151  and  _152
REMARK   64  A    between atoms: _155  and  _157
REMARK   65  A    between atoms: _157  and  _158
REMARK   66  A    between atoms: _157  and  _160
REMARK   67  A    between atoms: _160  and  _161
REMARK   68  A    between atoms: _163  and  _165
REMARK   69  A    between atoms: _165  and  _166
REMARK   70  A    between atoms: _165  and  _168
REMARK   71  A    between atoms: _168  and  _169
REMARK   72  A    between atoms: _172  and  _174
REMARK   73  A    between atoms: _174  and  _175
REMARK   74  A    between atoms: _174  and  _177
REMARK   75  A    between atoms: _177  and  _178
REMARK   76  A    between atoms: _180  and  _182
REMARK   77  A    between atoms: _182  and  _183
REMARK   78  A    between atoms: _182  and  _185
REMARK   79  A    between atoms: _185  and  _186
REMARK   80  A    between atoms: _191  and  _193
REMARK   81  A    between atoms: _193  and  _194
REMARK   82  A    between atoms: _193  and  _196
REMARK   83  A    between atoms: _196  and  _197
REMARK   84  A    between atoms: _200  and  _202
REMARK   85  A    between atoms: _202  and  _203
REMARK   86  A    between atoms: _202  and  _205
REMARK   87  A    between atoms: _205  and  _206
REMARK   88  A    between atoms: _211  and  _213
REMARK   89  A    between atoms: _213  and  _214
REMARK   90  A    between atoms: _216  and  _218
REMARK   91  A    between atoms: _218  and  _219
REMARK   92  A    between atoms: _218  and  _221
REMARK   93  A    between atoms: _221  and  _222
REMARK   94  A    between atoms: _225  and  _227
REMARK   95  A    between atoms: _227  and  _228
REMARK   96  A    between atoms: _227  and  _230
REMARK   97  A    between atoms: _230  and  _231
REMARK   98  A    between atoms: _234  and  _236
REMARK   99  A    between atoms: _236  and  _237
REMARK  100  A    between atoms: _236  and  _239
REMARK  101  A    between atoms: _239  and  _240
REMARK  102  A    between atoms: _242  and  _244
REMARK  103  A    between atoms: _244  and  _245
REMARK  104  A    between atoms: _244  and  _247
REMARK  105  A    between atoms: _249  and  _251
REMARK  106  A    between atoms: _251  and  _252
REMARK  107  A    between atoms: _251  and  _254
REMARK  108  A    between atoms: _254  and  _255
REMARK  109  A    between atoms: _257  and  _259
REMARK  110  A    between atoms: _259  and  _260
REMARK  111  A    between atoms: _259  and  _262
REMARK  112  A    between atoms: _262  and  _263
REMARK  113  A    between atoms: _265  and  _267
REMARK  114  A    between atoms: _267  and  _268
REMARK  115  A    between atoms: _267  and  _270
REMARK  116  A    between atoms: _270  and  _271
REMARK  117  A    between atoms: _276  and  _278
REMARK  118  A    between atoms: _278  and  _279
REMARK  119  A    between atoms: _278  and  _281
REMARK  120  A    between atoms: _281  and  _282
REMARK  121  A    between atoms: _287  and  _288
REMARK  122  A    between atoms: _290  and  _292
REMARK  123  A    between atoms: _292  and  _293
REMARK  124  A    between atoms: _292  and  _295
REMARK  125  A    between atoms: _295  and  _296
REMARK  126  A    between atoms: _299  and  _301
REMARK  127  A    between atoms: _301  and  _302
REMARK  128  A    between atoms: _301  and  _304
REMARK  129  A    between atoms: _304  and  _305
REMARK  130  A    between atoms: _308  and  _310
REMARK  131  A    between atoms: _310  and  _311
REMARK  132  A    between atoms: _310  and  _313
REMARK  133  A    between atoms: _313  and  _314
REMARK  134  A    between atoms: _314  and  _315
REMARK  135  A    between atoms: _315  and  _316
REMARK  136  A    between atoms: _326  and  _327
REMARK  137  A    between atoms: _332  and  _334
REMARK  138  A    between atoms: _334  and  _335
REMARK  139  A    between atoms: _334  and  _337
REMARK  140  A    between atoms: _337  and  _338
REMARK  141  A    between atoms: _338  and  _339
REMARK  142  A    between atoms: _339  and  _340
REMARK  143  A    between atoms: _349  and  _351
REMARK  144  A    between atoms: _351  and  _352
REMARK  145  A    between atoms: _351  and  _354
REMARK  146  A    between atoms: _354  and  _355
REMARK  147  A    between atoms: _355  and  _356
REMARK  148  A    between atoms: _359  and  _361
REMARK  149  A    between atoms: _361  and  _362
REMARK  150  A    between atoms: _361  and  _364
REMARK  151  A    between atoms: _364  and  _365
REMARK  152  A    between atoms: _368  and  _370
REMARK  153  A    between atoms: _370  and  _371
REMARK  154  A    between atoms: _370  and  _373
REMARK  155  A    between atoms: _373  and  _374
REMARK  156  A    between atoms: _379  and  _381
REMARK  157  A    between atoms: _381  and  _382
REMARK  158  A    between atoms: _381  and  _384
REMARK  159  A    between atoms: _384  and  _385
REMARK  160  A    between atoms: _387  and  _389
REMARK  161  A    between atoms: _389  and  _390
REMARK  162  A    between atoms: _389  and  _392
REMARK  163  A    between atoms: _392  and  _393
REMARK  164  A    between atoms: _403  and  _405
REMARK  165  A    between atoms: _405  and  _406
REMARK  166  A    between atoms: _405  and  _408
REMARK  167  A    between atoms: _408  and  _409
REMARK  168  A    between atoms: _412  and  _414
REMARK  169  A    between atoms: _414  and  _415
REMARK  170  A    between atoms: _417  and  _419
REMARK  171  A    between atoms: _419  and  _420
REMARK  172  A    between atoms: _419  and  _422
REMARK  173  A    between atoms: _422  and  _423
REMARK  174  A    between atoms: _428  and  _430
REMARK  175  A    between atoms: _430  and  _431
REMARK  176  A    between atoms: _430  and  _433
REMARK  177  A    between atoms: _433  and  _434
REMARK  178  A    between atoms: _437  and  _439
REMARK  179  A    between atoms: _439  and  _440
REMARK  180  A    between atoms: _439  and  _442
REMARK  181  A    between atoms: _442  and  _443
REMARK  182  A    between atoms: _446  and  _448
REMARK  183  A    between atoms: _448  and  _449
REMARK  184  A    between atoms: _448  and  _451
REMARK  185  A    between atoms: _451  and  _452
REMARK  186  A    between atoms: _452  and  _453
REMARK  187  A    between atoms: _455  and  _457
REMARK  188  A    between atoms: _457  and  _458
REMARK  189  A    between atoms: _457  and  _460
REMARK  190  A    between atoms: _460  and  _461
REMARK  191  A    between atoms: _466  and  _467
REMARK  192  A    between atoms: _469  and  _471
REMARK  193  A    between atoms: _471  and  _472
REMARK  194  A    between atoms: _476  and  _477
REMARK  195  A    between atoms: _482  and  _484
REMARK  196  A    between atoms: _484  and  _485
REMARK  197  A    between atoms: _484  and  _487
REMARK  198  A    between atoms: _487  and  _488
REMARK  199  A    between atoms: _491  and  _493
REMARK  200  A    between atoms: _493  and  _494
REMARK  201  A    between atoms: _493  and  _496
REMARK  202  A    between atoms: _496  and  _497
REMARK  203  A    between atoms: _507  and  _509
REMARK  204  A    between atoms: _509  and  _510
REMARK  205  A    between atoms: _509  and  _512
REMARK  206  A    between atoms: _514  and  _516
REMARK  207  A    between atoms: _516  and  _517
REMARK  208  A    between atoms: _516  and  _519
REMARK  209  A    between atoms: _519  and  _520
REMARK  210  A    between atoms: _520  and  _521
REMARK  211  A    between atoms: _526  and  _528
REMARK  212  A    between atoms: _528  and  _529
REMARK  213  A    between atoms: _528  and  _531
REMARK  214  A    between atoms: _531  and  _532
REMARK  215  A    between atoms: _535  and  _537
REMARK  216  A    between atoms: _537  and  _538
REMARK  217  A    between atoms: _537  and  _540
REMARK  218  A    between atoms: _540  and  _541
REMARK  219  A    between atoms: _546  and  _547
REMARK  220  A    between atoms: _549  and  _551
REMARK  221  A    between atoms: _551  and  _552
REMARK  222  A    between atoms: _554  and  _556
REMARK  223  A    between atoms: _556  and  _557
REMARK  224  A    between atoms: _560  and  _562
REMARK  225  A    between atoms: _562  and  _563
REMARK  226  A    between atoms: _562  and  _565
REMARK  227  A    between atoms: _567  and  _569
REMARK  228  A    between atoms: _569  and  _570
REMARK  229  A    between atoms: _569  and  _572
REMARK  230  A    between atoms: _572  and  _573
REMARK  231  A    between atoms: _578  and  _579
REMARK  232  A    between atoms: _581  and  _583
REMARK  233  A    between atoms: _583  and  _584
REMARK  234  A    between atoms: _583  and  _586
REMARK  235  A    between atoms: _586  and  _587
REMARK  236  A    between atoms: _590  and  _592
REMARK  237  A    between atoms: _592  and  _593
REMARK  238  A    between atoms: _592  and  _595
REMARK  239  A    between atoms: _595  and  _596
REMARK  240  A    between atoms: _601  and  _603
REMARK  241  A    between atoms: _603  and  _604
REMARK  242  A    between atoms: _603  and  _606
REMARK  243  A    between atoms: _606  and  _607
REMARK  244  A    between atoms: _617  and  _619
REMARK  245  A    between atoms: _619  and  _620
REMARK  246  A    between atoms: _619  and  _622
REMARK  247  A    between atoms: _622  and  _623
REMARK  248  A    between atoms: _629  and  _631
REMARK  249  A    between atoms: _631  and  _632
REMARK  250  A    between atoms: _635  and  _637
REMARK  251  A    between atoms: _637  and  _638
REMARK  252  A    between atoms: _640  and  _642
REMARK  253  A    between atoms: _642  and  _643
REMARK  254  A    between atoms: _642  and  _645
REMARK  255  A    between atoms: _645  and  _646
REMARK  256  A    between atoms: _651  and  _652
REMARK  257  A    between atoms: _654  and  _656
REMARK  258  A    between atoms: _656  and  _657
REMARK  259  A    between atoms: _656  and  _659
REMARK  260  A    between atoms: _659  and  _660
REMARK  261  A    between atoms: _662  and  _664
REMARK  262  A    between atoms: _664  and  _665
REMARK                            x       y       z     vdW  Elec       q    Type
REMARK                         _______ _______ _______ _____ _____    ______ ____
ROOT
ATOM      1  O   HOH     1     -25.568 -14.826  31.627  0.00  0.00    +0.000 OA
ENDROOT
TORSDOF 0
REMARK  Name = ../refined-set-2016/3hky/3hky_pocket.pdb
REMARK  262 active torsions:
REMARK  status: ('A' for Active; 'I' for Inactive)
REMARK    1  A    between atoms: _1  and  _3
REMARK    2  A    between atoms: _3  and  _4
REMARK    3  A    between atoms: _3  and  _6
REMARK    4  A    between atoms: _6  and  _7
REMARK    5  A    between atoms: _7  and  _8
REMARK    6  A    between atoms: _8  and  _9
REMARK    7  A    between atoms: _9  and  _10
REMARK    8  A    between atoms: _14  and  _16
REMARK    9  A    between atoms: _16  and  _17
REMARK   10  A    between atoms: _16  and  _19
REMARK   11  A    between atoms: _19  and  _20
REMARK   12  A    between atoms: _20  and  _21
REMARK   13  A    between atoms: _24  and  _26
REMARK   14  A    between atoms: _26  and  _27
REMARK   15  A    between atoms: _26  and  _29
REMARK   16  A    between atoms: _29  and  _30
REMARK   17  A    between atoms: _30  and  _31
REMARK   18  A    between atoms: _31  and  _32
REMARK   19  A    between atoms: _41  and  _43
REMARK   20  A    between atoms: _43  and  _44
REMARK   21  A    between atoms: _46  and  _48
REMARK   22  A    between atoms: _48  and  _49
REMARK   23  A    between atoms: _48  and  _51
REMARK   24  A    between atoms: _51  and  _52
REMARK   25  A    between atoms: _58  and  _60
REMARK   26  A    between atoms: _60  and  _61
REMARK   27  A    between atoms: _60  and  _63
REMARK   28  A    between atoms: _63  and  _64
REMARK   29  A    between atoms: _69  and  _70
REMARK   30  A    between atoms: _72  and  _74
REMARK   31  A    between atoms: _74  and  _75
REMARK   32  A    between atoms: _74  and  _77
REMARK   33  A    between atoms: _77  and  _78
REMARK   34  A    between atoms: _81  and  _82
REMARK   35  A    between atoms: _87  and  _89
REMARK   36  A    between atoms: _89  and  _90
REMARK   37  A    between atoms: _89  and  _92
REMARK   38  A    between atoms: _92  and  _93
REMARK   39  A    between atoms: _93  and  _94
REMARK   40  A    between atoms: _94  and  _95
REMARK   41  A    between atoms: _95  and  _96
REMARK   42  A    between atoms: _100  and  _102
REMARK   43  A    between atoms: _102  and  _103
REMARK   44  A    between atoms: _102  and  _105
REMARK   45  A    between atoms: _105  and  _106
REMARK   46  A    between atoms: _106  and  _107
REMARK   47  A    between atoms: _112  and  _114
REMARK   48  A    between atoms: _114  and  _115
REMARK   49  A    between atoms: _114  and  _117
REMARK   50  A    between atoms: _117  and  _118
REMARK   51  A    between atoms: _118  and  _119
REMARK   52  A    between atoms: _119  and  _120
REMARK   53  A    between atoms: _129  and  _131
REMARK   54  A    between atoms: _131  and  _132
REMARK   55  A    between atoms: _131  and  _134
REMARK   56  A    between atoms: _137  and  _139
REMARK   57  A    between atoms: _139  and  _140
REMARK   58  A    between atoms: _139  and  _142
REMARK   59  A    between atoms: _142  and  _143
REMARK   60  A    between atoms: _146  and  _148
REMARK   61  A    between atoms: _148  and  _149
REMARK   62  A    between atoms: _148  and  _151
REMARK   63  A    between atoms: _151  and  _152
REMARK   64  A    between atoms: _155  and  _157
REMARK   65  A    between atoms: _157  and  _158
REMARK   66  A    between atoms: _157  and  _160
REMARK   67  A    between atoms: _160  and  _161
REMARK   68  A    between atoms: _163  and  _165
REMARK   69  A    between atoms: _165  and  _166
REMARK   70  A    between atoms: _165  and  _168
REMARK   71  A    between atoms: _168  and  _169
REMARK   72  A    between atoms: _172  and  _174
REMARK   73  A    between atoms: _174  and  _175
REMARK   74  A    between atoms: _174  and  _177
REMARK   75  A    between atoms: _177  and  _178
REMARK   76  A    between atoms: _180  and  _182
REMARK   77  A    between atoms: _182  and  _183
REMARK   78  A    between atoms: _182  and  _185
REMARK   79  A    between atoms: _185  and  _186
REMARK   80  A    between atoms: _191  and  _193
REMARK   81  A    between atoms: _193  and  _194
REMARK   82  A    between atoms: _193  and  _196
REMARK   83  A    between atoms: _196  and  _197
REMARK   84  A    between atoms: _200  and  _202
REMARK   85  A    between atoms: _202  and  _203
REMARK   86  A    between atoms: _202  and  _205
REMARK   87  A    between atoms: _205  and  _206
REMARK   88  A    between atoms: _211  and  _213
REMARK   89  A    between atoms: _213  and  _214
REMARK   90  A    between atoms: _216  and  _218
REMARK   91  A    between atoms: _218  and  _219
REMARK   92  A    between atoms: _218  and  _221
REMARK   93  A    between atoms: _221  and  _222
REMARK   94  A    between atoms: _225  and  _227
REMARK   95  A    between atoms: _227  and  _228
REMARK   96  A    between atoms: _227  and  _230
REMARK   97  A    between atoms: _230  and  _231
REMARK   98  A    between atoms: _234  and  _236
REMARK   99  A    between atoms: _236  and  _237
REMARK  100  A    between atoms: _236  and  _239
REMARK  101  A    between atoms: _239  and  _240
REMARK  102  A    between atoms: _242  and  _244
REMARK  103  A    between atoms: _244  and  _245
REMARK  104  A    between atoms: _244  and  _247
REMARK  105  A    between atoms: _249  and  _251
REMARK  106  A    between atoms: _251  and  _252
REMARK  107  A    between atoms: _251  and  _254
REMARK  108  A    between atoms: _254  and  _255
REMARK  109  A    between atoms: _257  and  _259
REMARK  110  A    between atoms: _259  and  _260
REMARK  111  A    between atoms: _259  and  _262
REMARK  112  A    between atoms: _262  and  _263
REMARK  113  A    between atoms: _265  and  _267
REMARK  114  A    between atoms: _267  and  _268
REMARK  115  A    between atoms: _267  and  _270
REMARK  116  A    between atoms: _270  and  _271
REMARK  117  A    between atoms: _276  and  _278
REMARK  118  A    between atoms: _278  and  _279
REMARK  119  A    between atoms: _278  and  _281
REMARK  120  A    between atoms: _281  and  _282
REMARK  121  A    between atoms: _287  and  _288
REMARK  122  A    between atoms: _290  and  _292
REMARK  123  A    between atoms: _292  and  _293
REMARK  124  A    between atoms: _292  and  _295
REMARK  125  A    between atoms: _295  and  _296
REMARK  126  A    between atoms: _299  and  _301
REMARK  127  A    between atoms: _301  and  _302
REMARK  128  A    between atoms: _301  and  _304
REMARK  129  A    between atoms: _304  and  _305
REMARK  130  A    between atoms: _308  and  _310
REMARK  131  A    between atoms: _310  and  _311
REMARK  132  A    between atoms: _310  and  _313
REMARK  133  A    between atoms: _313  and  _314
REMARK  134  A    between atoms: _314  and  _315
REMARK  135  A    between atoms: _315  and  _316
REMARK  136  A    between atoms: _326  and  _327
REMARK  137  A    between atoms: _332  and  _334
REMARK  138  A    between atoms: _334  and  _335
REMARK  139  A    between atoms: _334  and  _337
REMARK  140  A    between atoms: _337  and  _338
REMARK  141  A    between atoms: _338  and  _339
REMARK  142  A    between atoms: _339  and  _340
REMARK  143  A    between atoms: _349  and  _351
REMARK  144  A    between atoms: _351  and  _352
REMARK  145  A    between atoms: _351  and  _354
REMARK  146  A    between atoms: _354  and  _355
REMARK  147  A    between atoms: _355  and  _356
REMARK  148  A    between atoms: _359  and  _361
REMARK  149  A    between atoms: _361  and  _362
REMARK  150  A    between atoms: _361  and  _364
REMARK  151  A    between atoms: _364  and  _365
REMARK  152  A    between atoms: _368  and  _370
REMARK  153  A    between atoms: _370  and  _371
REMARK  154  A    between atoms: _370  and  _373
REMARK  155  A    between atoms: _373  and  _374
REMARK  156  A    between atoms: _379  and  _381
REMARK  157  A    between atoms: _381  and  _382
REMARK  158  A    between atoms: _381  and  _384
REMARK  159  A    between atoms: _384  and  _385
REMARK  160  A    between atoms: _387  and  _389
REMARK  161  A    between atoms: _389  and  _390
REMARK  162  A    between atoms: _389  and  _392
REMARK  163  A    between atoms: _392  and  _393
REMARK  164  A    between atoms: _403  and  _405
REMARK  165  A    between atoms: _405  and  _406
REMARK  166  A    between atoms: _405  and  _408
REMARK  167  A    between atoms: _408  and  _409
REMARK  168  A    between atoms: _412  and  _414
REMARK  169  A    between atoms: _414  and  _415
REMARK  170  A    between atoms: _417  and  _419
REMARK  171  A    between atoms: _419  and  _420
REMARK  172  A    between atoms: _419  and  _422
REMARK  173  A    between atoms: _422  and  _423
REMARK  174  A    between atoms: _428  and  _430
REMARK  175  A    between atoms: _430  and  _431
REMARK  176  A    between atoms: _430  and  _433
REMARK  177  A    between atoms: _433  and  _434
REMARK  178  A    between atoms: _437  and  _439
REMARK  179  A    between atoms: _439  and  _440
REMARK  180  A    between atoms: _439  and  _442
REMARK  181  A    between atoms: _442  and  _443
REMARK  182  A    between atoms: _446  and  _448
REMARK  183  A    between atoms: _448  and  _449
REMARK  184  A    between atoms: _448  and  _451
REMARK  185  A    between atoms: _451  and  _452
REMARK  186  A    between atoms: _452  and  _453
REMARK  187  A    between atoms: _455  and  _457
REMARK  188  A    between atoms: _457  and  _458
REMARK  189  A    between atoms: _457  and  _460
REMARK  190  A    between atoms: _460  and  _461
REMARK  191  A    between atoms: _466  and  _467
REMARK  192  A    between atoms: _469  and  _471
REMARK  193  A    between atoms: _471  and  _472
REMARK  194  A    between atoms: _476  and  _477
REMARK  195  A    between atoms: _482  and  _484
REMARK  196  A    between atoms: _484  and  _485
REMARK  197  A    between atoms: _484  and  _487
REMARK  198  A    between atoms: _487  and  _488
REMARK  199  A    between atoms: _491  and  _493
REMARK  200  A    between atoms: _493  and  _494
REMARK  201  A    between atoms: _493  and  _496
REMARK  202  A    between atoms: _496  and  _497
REMARK  203  A    between atoms: _507  and  _509
REMARK  204  A    between atoms: _509  and  _510
REMARK  205  A    between atoms: _509  and  _512
REMARK  206  A    between atoms: _514  and  _516
REMARK  207  A    between atoms: _516  and  _517
REMARK  208  A    between atoms: _516  and  _519
REMARK  209  A    between atoms: _519  and  _520
REMARK  210  A    between atoms: _520  and  _521
REMARK  211  A    between atoms: _526  and  _528
REMARK  212  A    between atoms: _528  and  _529
REMARK  213  A    between atoms: _528  and  _531
REMARK  214  A    between atoms: _531  and  _532
REMARK  215  A    between atoms: _535  and  _537
REMARK  216  A    between atoms: _537  and  _538
REMARK  217  A    between atoms: _537  and  _540
REMARK  218  A    between atoms: _540  and  _541
REMARK  219  A    between atoms: _546  and  _547
REMARK  220  A    between atoms: _549  and  _551
REMARK  221  A    between atoms: _551  and  _552
REMARK  222  A    between atoms: _554  and  _556
REMARK  223  A    between atoms: _556  and  _557
REMARK  224  A    between atoms: _560  and  _562
REMARK  225  A    between atoms: _562  and  _563
REMARK  226  A    between atoms: _562  and  _565
REMARK  227  A    between atoms: _567  and  _569
REMARK  228  A    between atoms: _569  and  _570
REMARK  229  A    between atoms: _569  and  _572
REMARK  230  A    between atoms: _572  and  _573
REMARK  231  A    between atoms: _578  and  _579
REMARK  232  A    between atoms: _581  and  _583
REMARK  233  A    between atoms: _583  and  _584
REMARK  234  A    between atoms: _583  and  _586
REMARK  235  A    between atoms: _586  and  _587
REMARK  236  A    between atoms: _590  and  _592
REMARK  237  A    between atoms: _592  and  _593
REMARK  238  A    between atoms: _592  and  _595
REMARK  239  A    between atoms: _595  and  _596
REMARK  240  A    between atoms: _601  and  _603
REMARK  241  A    between atoms: _603  and  _604
REMARK  242  A    between atoms: _603  and  _606
REMARK  243  A    between atoms: _606  and  _607
REMARK  244  A    between atoms: _617  and  _619
REMARK  245  A    between atoms: _619  and  _620
REMARK  246  A    between atoms: _619  and  _622
REMARK  247  A    between atoms: _622  and  _623
REMARK  248  A    between atoms: _629  and  _631
REMARK  249  A    between atoms: _631  and  _632
REMARK  250  A    between atoms: _635  and  _637
REMARK  251  A    between atoms: _637  and  _638
REMARK  252  A    between atoms: _640  and  _642
REMARK  253  A    between atoms: _642  and  _643
REMARK  254  A    between atoms: _642  and  _645
REMARK  255  A    between atoms: _645  and  _646
REMARK  256  A    between atoms: _651  and  _652
REMARK  257  A    between atoms: _654  and  _656
REMARK  258  A    between atoms: _656  and  _657
REMARK  259  A    between atoms: _656  and  _659
REMARK  260  A    between atoms: _659  and  _660
REMARK  261  A    between atoms: _662  and  _664
REMARK  262  A    between atoms: _664  and  _665
REMARK                            x       y       z     vdW  Elec       q    Type
REMARK                         _______ _______ _______ _____ _____    ______ ____
ROOT
ATOM      1  O   HOH     1     -31.300  -1.239  30.343  0.00  0.00    +0.000 OA
ENDROOT
TORSDOF 0
REMARK  Name = ../refined-set-2016/3hky/3hky_pocket.pdb
REMARK  262 active torsions:
REMARK  status: ('A' for Active; 'I' for Inactive)
REMARK    1  A    between atoms: _1  and  _3
REMARK    2  A    between atoms: _3  and  _4
REMARK    3  A    between atoms: _3  and  _6
REMARK    4  A    between atoms: _6  and  _7
REMARK    5  A    between atoms: _7  and  _8
REMARK    6  A    between atoms: _8  and  _9
REMARK    7  A    between atoms: _9  and  _10
REMARK    8  A    between atoms: _14  and  _16
REMARK    9  A    between atoms: _16  and  _17
REMARK   10  A    between atoms: _16  and  _19
REMARK   11  A    between atoms: _19  and  _20
REMARK   12  A    between atoms: _20  and  _21
REMARK   13  A    between atoms: _24  and  _26
REMARK   14  A    between atoms: _26  and  _27
REMARK   15  A    between atoms: _26  and  _29
REMARK   16  A    between atoms: _29  and  _30
REMARK   17  A    between atoms: _30  and  _31
REMARK   18  A    between atoms: _31  and  _32
REMARK   19  A    between atoms: _41  and  _43
REMARK   20  A    between atoms: _43  and  _44
REMARK   21  A    between atoms: _46  and  _48
REMARK   22  A    between atoms: _48  and  _49
REMARK   23  A    between atoms: _48  and  _51
REMARK   24  A    between atoms: _51  and  _52
REMARK   25  A    between atoms: _58  and  _60
REMARK   26  A    between atoms: _60  and  _61
REMARK   27  A    between atoms: _60  and  _63
REMARK   28  A    between atoms: _63  and  _64
REMARK   29  A    between atoms: _69  and  _70
REMARK   30  A    between atoms: _72  and  _74
REMARK   31  A    between atoms: _74  and  _75
REMARK   32  A    between atoms: _74  and  _77
REMARK   33  A    between atoms: _77  and  _78
REMARK   34  A    between atoms: _81  and  _82
REMARK   35  A    between atoms: _87  and  _89
REMARK   36  A    between atoms: _89  and  _90
REMARK   37  A    between atoms: _89  and  _92
REMARK   38  A    between atoms: _92  and  _93
REMARK   39  A    between atoms: _93  and  _94
REMARK   40  A    between atoms: _94  and  _95
REMARK   41  A    between atoms: _95  and  _96
REMARK   42  A    between atoms: _100  and  _102
REMARK   43  A    between atoms: _102  and  _103
REMARK   44  A    between atoms: _102  and  _105
REMARK   45  A    between atoms: _105  and  _106
REMARK   46  A    between atoms: _106  and  _107
REMARK   47  A    between atoms: _112  and  _114
REMARK   48  A    between atoms: _114  and  _115
REMARK   49  A    between atoms: _114  and  _117
REMARK   50  A    between atoms: _117  and  _118
REMARK   51  A    between atoms: _118  and  _119
REMARK   52  A    between atoms: _119  and  _120
REMARK   53  A    between atoms: _129  and  _131
REMARK   54  A    between atoms: _131  and  _132
REMARK   55  A    between atoms: _131  and  _134
REMARK   56  A    between atoms: _137  and  _139
REMARK   57  A    between atoms: _139  and  _140
REMARK   58  A    between atoms: _139  and  _142
REMARK   59  A    between atoms: _142  and  _143
REMARK   60  A    between atoms: _146  and  _148
REMARK   61  A    between atoms: _148  and  _149
REMARK   62  A    between atoms: _148  and  _151
REMARK   63  A    between atoms: _151  and  _152
REMARK   64  A    between atoms: _155  and  _157
REMARK   65  A    between atoms: _157  and  _158
REMARK   66  A    between atoms: _157  and  _160
REMARK   67  A    between atoms: _160  and  _161
REMARK   68  A    between atoms: _163  and  _165
REMARK   69  A    between atoms: _165  and  _166
REMARK   70  A    between atoms: _165  and  _168
REMARK   71  A    between atoms: _168  and  _169
REMARK   72  A    between atoms: _172  and  _174
REMARK   73  A    between atoms: _174  and  _175
REMARK   74  A    between atoms: _174  and  _177
REMARK   75  A    between atoms: _177  and  _178
REMARK   76  A    between atoms: _180  and  _182
REMARK   77  A    between atoms: _182  and  _183
REMARK   78  A    between atoms: _182  and  _185
REMARK   79  A    between atoms: _185  and  _186
REMARK   80  A    between atoms: _191  and  _193
REMARK   81  A    between atoms: _193  and  _194
REMARK   82  A    between atoms: _193  and  _196
REMARK   83  A    between atoms: _196  and  _197
REMARK   84  A    between atoms: _200  and  _202
REMARK   85  A    between atoms: _202  and  _203
REMARK   86  A    between atoms: _202  and  _205
REMARK   87  A    between atoms: _205  and  _206
REMARK   88  A    between atoms: _211  and  _213
REMARK   89  A    between atoms: _213  and  _214
REMARK   90  A    between atoms: _216  and  _218
REMARK   91  A    between atoms: _218  and  _219
REMARK   92  A    between atoms: _218  and  _221
REMARK   93  A    between atoms: _221  and  _222
REMARK   94  A    between atoms: _225  and  _227
REMARK   95  A    between atoms: _227  and  _228
REMARK   96  A    between atoms: _227  and  _230
REMARK   97  A    between atoms: _230  and  _231
REMARK   98  A    between atoms: _234  and  _236
REMARK   99  A    between atoms: _236  and  _237
REMARK  100  A    between atoms: _236  and  _239
REMARK  101  A    between atoms: _239  and  _240
REMARK  102  A    between atoms: _242  and  _244
REMARK  103  A    between atoms: _244  and  _245
REMARK  104  A    between atoms: _244  and  _247
REMARK  105  A    between atoms: _249  and  _251
REMARK  106  A    between atoms: _251  and  _252
REMARK  107  A    between atoms: _251  and  _254
REMARK  108  A    between atoms: _254  and  _255
REMARK  109  A    between atoms: _257  and  _259
REMARK  110  A    between atoms: _259  and  _260
REMARK  111  A    between atoms: _259  and  _262
REMARK  112  A    between atoms: _262  and  _263
REMARK  113  A    between atoms: _265  and  _267
REMARK  114  A    between atoms: _267  and  _268
REMARK  115  A    between atoms: _267  and  _270
REMARK  116  A    between atoms: _270  and  _271
REMARK  117  A    between atoms: _276  and  _278
REMARK  118  A    between atoms: _278  and  _279
REMARK  119  A    between atoms: _278  and  _281
REMARK  120  A    between atoms: _281  and  _282
REMARK  121  A    between atoms: _287  and  _288
REMARK  122  A    between atoms: _290  and  _292
REMARK  123  A    between atoms: _292  and  _293
REMARK  124  A    between atoms: _292  and  _295
REMARK  125  A    between atoms: _295  and  _296
REMARK  126  A    between atoms: _299  and  _301
REMARK  127  A    between atoms: _301  and  _302
REMARK  128  A    between atoms: _301  and  _304
REMARK  129  A    between atoms: _304  and  _305
REMARK  130  A    between atoms: _308  and  _310
REMARK  131  A    between atoms: _310  and  _311
REMARK  132  A    between atoms: _310  and  _313
REMARK  133  A    between atoms: _313  and  _314
REMARK  134  A    between atoms: _314  and  _315
REMARK  135  A    between atoms: _315  and  _316
REMARK  136  A    between atoms: _326  and  _327
REMARK  137  A    between atoms: _332  and  _334
REMARK  138  A    between atoms: _334  and  _335
REMARK  139  A    between atoms: _334  and  _337
REMARK  140  A    between atoms: _337  and  _338
REMARK  141  A    between atoms: _338  and  _339
REMARK  142  A    between atoms: _339  and  _340
REMARK  143  A    between atoms: _349  and  _351
REMARK  144  A    between atoms: _351  and  _352
REMARK  145  A    between atoms: _351  and  _354
REMARK  146  A    between atoms: _354  and  _355
REMARK  147  A    between atoms: _355  and  _356
REMARK  148  A    between atoms: _359  and  _361
REMARK  149  A    between atoms: _361  and  _362
REMARK  150  A    between atoms: _361  and  _364
REMARK  151  A    between atoms: _364  and  _365
REMARK  152  A    between atoms: _368  and  _370
REMARK  153  A    between atoms: _370  and  _371
REMARK  154  A    between atoms: _370  and  _373
REMARK  155  A    between atoms: _373  and  _374
REMARK  156  A    between atoms: _379  and  _381
REMARK  157  A    between atoms: _381  and  _382
REMARK  158  A    between atoms: _381  and  _384
REMARK  159  A    between atoms: _384  and  _385
REMARK  160  A    between atoms: _387  and  _389
REMARK  161  A    between atoms: _389  and  _390
REMARK  162  A    between atoms: _389  and  _392
REMARK  163  A    between atoms: _392  and  _393
REMARK  164  A    between atoms: _403  and  _405
REMARK  165  A    between atoms: _405  and  _406
REMARK  166  A    between atoms: _405  and  _408
REMARK  167  A    between atoms: _408  and  _409
REMARK  168  A    between atoms: _412  and  _414
REMARK  169  A    between atoms: _414  and  _415
REMARK  170  A    between atoms: _417  and  _419
REMARK  171  A    between atoms: _419  and  _420
REMARK  172  A    between atoms: _419  and  _422
REMARK  173  A    between atoms: _422  and  _423
REMARK  174  A    between atoms: _428  and  _430
REMARK  175  A    between atoms: _430  and  _431
REMARK  176  A    between atoms: _430  and  _433
REMARK  177  A    between atoms: _433  and  _434
REMARK  178  A    between atoms: _437  and  _439
REMARK  179  A    between atoms: _439  and  _440
REMARK  180  A    between atoms: _439  and  _442
REMARK  181  A    between atoms: _442  and  _443
REMARK  182  A    between atoms: _446  and  _448
REMARK  183  A    between atoms: _448  and  _449
REMARK  184  A    between atoms: _448  and  _451
REMARK  185  A    between atoms: _451  and  _452
REMARK  186  A    between atoms: _452  and  _453
REMARK  187  A    between atoms: _455  and  _457
REMARK  188  A    between atoms: _457  and  _458
REMARK  189  A    between atoms: _457  and  _460
REMARK  190  A    between atoms: _460  and  _461
REMARK  191  A    between atoms: _466  and  _467
REMARK  192  A    between atoms: _469  and  _471
REMARK  193  A    between atoms: _471  and  _472
REMARK  194  A    between atoms: _476  and  _477
REMARK  195  A    between atoms: _482  and  _484
REMARK  196  A    between atoms: _484  and  _485
REMARK  197  A    between atoms: _484  and  _487
REMARK  198  A    between atoms: _487  and  _488
REMARK  199  A    between atoms: _491  and  _493
REMARK  200  A    between atoms: _493  and  _494
REMARK  201  A    between atoms: _493  and  _496
REMARK  202  A    between atoms: _496  and  _497
REMARK  203  A    between atoms: _507  and  _509
REMARK  204  A    between atoms: _509  and  _510
REMARK  205  A    between atoms: _509  and  _512
REMARK  206  A    between atoms: _514  and  _516
REMARK  207  A    between atoms: _516  and  _517
REMARK  208  A    between atoms: _516  and  _519
REMARK  209  A    between atoms: _519  and  _520
REMARK  210  A    between atoms: _520  and  _521
REMARK  211  A    between atoms: _526  and  _528
REMARK  212  A    between atoms: _528  and  _529
REMARK  213  A    between atoms: _528  and  _531
REMARK  214  A    between atoms: _531  and  _532
REMARK  215  A    between atoms: _535  and  _537
REMARK  216  A    between atoms: _537  and  _538
REMARK  217  A    between atoms: _537  and  _540
REMARK  218  A    between atoms: _540  and  _541
REMARK  219  A    between atoms: _546  and  _547
REMARK  220  A    between atoms: _549  and  _551
REMARK  221  A    between atoms: _551  and  _552
REMARK  222  A    between atoms: _554  and  _556
REMARK  223  A    between atoms: _556  and  _557
REMARK  224  A    between atoms: _560  and  _562
REMARK  225  A    between atoms: _562  and  _563
REMARK  226  A    between atoms: _562  and  _565
REMARK  227  A    between atoms: _567  and  _569
REMARK  228  A    between atoms: _569  and  _570
REMARK  229  A    between atoms: _569  and  _572
REMARK  230  A    between atoms: _572  and  _573
REMARK  231  A    between atoms: _578  and  _579
REMARK  232  A    between atoms: _581  and  _583
REMARK  233  A    between atoms: _583  and  _584
REMARK  234  A    between atoms: _583  and  _586
REMARK  235  A    between atoms: _586  and  _587
REMARK  236  A    between atoms: _590  and  _592
REMARK  237  A    between atoms: _592  and  _593
REMARK  238  A    between atoms: _592  and  _595
REMARK  239  A    between atoms: _595  and  _596
REMARK  240  A    between atoms: _601  and  _603
REMARK  241  A    between atoms: _603  and  _604
REMARK  242  A    between atoms: _603  and  _606
REMARK  243  A    between atoms: _606  and  _607
REMARK  244  A    between atoms: _617  and  _619
REMARK  245  A    between atoms: _619  and  _620
REMARK  246  A    between atoms: _619  and  _622
REMARK  247  A    between atoms: _622  and  _623
REMARK  248  A    between atoms: _629  and  _631
REMARK  249  A    between atoms: _631  and  _632
REMARK  250  A    between atoms: _635  and  _637
REMARK  251  A    between atoms: _637  and  _638
REMARK  252  A    between atoms: _640  and  _642
REMARK  253  A    between atoms: _642  and  _643
REMARK  254  A    between atoms: _642  and  _645
REMARK  255  A    between atoms: _645  and  _646
REMARK  256  A    between atoms: _651  and  _652
REMARK  257  A    between atoms: _654  and  _656
REMARK  258  A    between atoms: _656  and  _657
REMARK  259  A    between atoms: _656  and  _659
REMARK  260  A    between atoms: _659  and  _660
REMARK  261  A    between atoms: _662  and  _664
REMARK  262  A    between atoms: _664  and  _665
REMARK                            x       y       z     vdW  Elec       q    Type
REMARK                         _______ _______ _______ _____ _____    ______ ____
ROOT
ATOM      1  O   HOH     1     -29.221  -0.708  28.654  0.00  0.00    +0.000 OA
ENDROOT
TORSDOF 0
REMARK  Name = ../refined-set-2016/3hky/3hky_pocket.pdb
REMARK  262 active torsions:
REMARK  status: ('A' for Active; 'I' for Inactive)
REMARK    1  A    between atoms: _1  and  _3
REMARK    2  A    between atoms: _3  and  _4
REMARK    3  A    between atoms: _3  and  _6
REMARK    4  A    between atoms: _6  and  _7
REMARK    5  A    between atoms: _7  and  _8
REMARK    6  A    between atoms: _8  and  _9
REMARK    7  A    between atoms: _9  and  _10
REMARK    8  A    between atoms: _14  and  _16
REMARK    9  A    between atoms: _16  and  _17
REMARK   10  A    between atoms: _16  and  _19
REMARK   11  A    between atoms: _19  and  _20
REMARK   12  A    between atoms: _20  and  _21
REMARK   13  A    between atoms: _24  and  _26
REMARK   14  A    between atoms: _26  and  _27
REMARK   15  A    between atoms: _26  and  _29
REMARK   16  A    between atoms: _29  and  _30
REMARK   17  A    between atoms: _30  and  _31
REMARK   18  A    between atoms: _31  and  _32
REMARK   19  A    between atoms: _41  and  _43
REMARK   20  A    between atoms: _43  and  _44
REMARK   21  A    between atoms: _46  and  _48
REMARK   22  A    between atoms: _48  and  _49
REMARK   23  A    between atoms: _48  and  _51
REMARK   24  A    between atoms: _51  and  _52
REMARK   25  A    between atoms: _58  and  _60
REMARK   26  A    between atoms: _60  and  _61
REMARK   27  A    between atoms: _60  and  _63
REMARK   28  A    between atoms: _63  and  _64
REMARK   29  A    between atoms: _69  and  _70
REMARK   30  A    between atoms: _72  and  _74
REMARK   31  A    between atoms: _74  and  _75
REMARK   32  A    between atoms: _74  and  _77
REMARK   33  A    between atoms: _77  and  _78
REMARK   34  A    between atoms: _81  and  _82
REMARK   35  A    between atoms: _87  and  _89
REMARK   36  A    between atoms: _89  and  _90
REMARK   37  A    between atoms: _89  and  _92
REMARK   38  A    between atoms: _92  and  _93
REMARK   39  A    between atoms: _93  and  _94
REMARK   40  A    between atoms: _94  and  _95
REMARK   41  A    between atoms: _95  and  _96
REMARK   42  A    between atoms: _100  and  _102
REMARK   43  A    between atoms: _102  and  _103
REMARK   44  A    between atoms: _102  and  _105
REMARK   45  A    between atoms: _105  and  _106
REMARK   46  A    between atoms: _106  and  _107
REMARK   47  A    between atoms: _112  and  _114
REMARK   48  A    between atoms: _114  and  _115
REMARK   49  A    between atoms: _114  and  _117
REMARK   50  A    between atoms: _117  and  _118
REMARK   51  A    between atoms: _118  and  _119
REMARK   52  A    between atoms: _119  and  _120
REMARK   53  A    between atoms: _129  and  _131
REMARK   54  A    between atoms: _131  and  _132
REMARK   55  A    between atoms: _131  and  _134
REMARK   56  A    between atoms: _137  and  _139
REMARK   57  A    between atoms: _139  and  _140
REMARK   58  A    between atoms: _139  and  _142
REMARK   59  A    between atoms: _142  and  _143
REMARK   60  A    between atoms: _146  and  _148
REMARK   61  A    between atoms: _148  and  _149
REMARK   62  A    between atoms: _148  and  _151
REMARK   63  A    between atoms: _151  and  _152
REMARK   64  A    between atoms: _155  and  _157
REMARK   65  A    between atoms: _157  and  _158
REMARK   66  A    between atoms: _157  and  _160
REMARK   67  A    between atoms: _160  and  _161
REMARK   68  A    between atoms: _163  and  _165
REMARK   69  A    between atoms: _165  and  _166
REMARK   70  A    between atoms: _165  and  _168
REMARK   71  A    between atoms: _168  and  _169
REMARK   72  A    between atoms: _172  and  _174
REMARK   73  A    between atoms: _174  and  _175
REMARK   74  A    between atoms: _174  and  _177
REMARK   75  A    between atoms: _177  and  _178
REMARK   76  A    between atoms: _180  and  _182
REMARK   77  A    between atoms: _182  and  _183
REMARK   78  A    between atoms: _182  and  _185
REMARK   79  A    between atoms: _185  and  _186
REMARK   80  A    between atoms: _191  and  _193
REMARK   81  A    between atoms: _193  and  _194
REMARK   82  A    between atoms: _193  and  _196
REMARK   83  A    between atoms: _196  and  _197
REMARK   84  A    between atoms: _200  and  _202
REMARK   85  A    between atoms: _202  and  _203
REMARK   86  A    between atoms: _202  and  _205
REMARK   87  A    between atoms: _205  and  _206
REMARK   88  A    between atoms: _211  and  _213
REMARK   89  A    between atoms: _213  and  _214
REMARK   90  A    between atoms: _216  and  _218
REMARK   91  A    between atoms: _218  and  _219
REMARK   92  A    between atoms: _218  and  _221
REMARK   93  A    between atoms: _221  and  _222
REMARK   94  A    between atoms: _225  and  _227
REMARK   95  A    between atoms: _227  and  _228
REMARK   96  A    between atoms: _227  and  _230
REMARK   97  A    between atoms: _230  and  _231
REMARK   98  A    between atoms: _234  and  _236
REMARK   99  A    between atoms: _236  and  _237
REMARK  100  A    between atoms: _236  and  _239
REMARK  101  A    between atoms: _239  and  _240
REMARK  102  A    between atoms: _242  and  _244
REMARK  103  A    between atoms: _244  and  _245
REMARK  104  A    between atoms: _244  and  _247
REMARK  105  A    between atoms: _249  and  _251
REMARK  106  A    between atoms: _251  and  _252
REMARK  107  A    between atoms: _251  and  _254
REMARK  108  A    between atoms: _254  and  _255
REMARK  109  A    between atoms: _257  and  _259
REMARK  110  A    between atoms: _259  and  _260
REMARK  111  A    between atoms: _259  and  _262
REMARK  112  A    between atoms: _262  and  _263
REMARK  113  A    between atoms: _265  and  _267
REMARK  114  A    between atoms: _267  and  _268
REMARK  115  A    between atoms: _267  and  _270
REMARK  116  A    between atoms: _270  and  _271
REMARK  117  A    between atoms: _276  and  _278
REMARK  118  A    between atoms: _278  and  _279
REMARK  119  A    between atoms: _278  and  _281
REMARK  120  A    between atoms: _281  and  _282
REMARK  121  A    between atoms: _287  and  _288
REMARK  122  A    between atoms: _290  and  _292
REMARK  123  A    between atoms: _292  and  _293
REMARK  124  A    between atoms: _292  and  _295
REMARK  125  A    between atoms: _295  and  _296
REMARK  126  A    between atoms: _299  and  _301
REMARK  127  A    between atoms: _301  and  _302
REMARK  128  A    between atoms: _301  and  _304
REMARK  129  A    between atoms: _304  and  _305
REMARK  130  A    between atoms: _308  and  _310
REMARK  131  A    between atoms: _310  and  _311
REMARK  132  A    between atoms: _310  and  _313
REMARK  133  A    between atoms: _313  and  _314
REMARK  134  A    between atoms: _314  and  _315
REMARK  135  A    between atoms: _315  and  _316
REMARK  136  A    between atoms: _326  and  _327
REMARK  137  A    between atoms: _332  and  _334
REMARK  138  A    between atoms: _334  and  _335
REMARK  139  A    between atoms: _334  and  _337
REMARK  140  A    between atoms: _337  and  _338
REMARK  141  A    between atoms: _338  and  _339
REMARK  142  A    between atoms: _339  and  _340
REMARK  143  A    between atoms: _349  and  _351
REMARK  144  A    between atoms: _351  and  _352
REMARK  145  A    between atoms: _351  and  _354
REMARK  146  A    between atoms: _354  and  _355
REMARK  147  A    between atoms: _355  and  _356
REMARK  148  A    between atoms: _359  and  _361
REMARK  149  A    between atoms: _361  and  _362
REMARK  150  A    between atoms: _361  and  _364
REMARK  151  A    between atoms: _364  and  _365
REMARK  152  A    between atoms: _368  and  _370
REMARK  153  A    between atoms: _370  and  _371
REMARK  154  A    between atoms: _370  and  _373
REMARK  155  A    between atoms: _373  and  _374
REMARK  156  A    between atoms: _379  and  _381
REMARK  157  A    between atoms: _381  and  _382
REMARK  158  A    between atoms: _381  and  _384
REMARK  159  A    between atoms: _384  and  _385
REMARK  160  A    between atoms: _387  and  _389
REMARK  161  A    between atoms: _389  and  _390
REMARK  162  A    between atoms: _389  and  _392
REMARK  163  A    between atoms: _392  and  _393
REMARK  164  A    between atoms: _403  and  _405
REMARK  165  A    between atoms: _405  and  _406
REMARK  166  A    between atoms: _405  and  _408
REMARK  167  A    between atoms: _408  and  _409
REMARK  168  A    between atoms: _412  and  _414
REMARK  169  A    between atoms: _414  and  _415
REMARK  170  A    between atoms: _417  and  _419
REMARK  171  A    between atoms: _419  and  _420
REMARK  172  A    between atoms: _419  and  _422
REMARK  173  A    between atoms: _422  and  _423
REMARK  174  A    between atoms: _428  and  _430
REMARK  175  A    between atoms: _430  and  _431
REMARK  176  A    between atoms: _430  and  _433
REMARK  177  A    between atoms: _433  and  _434
REMARK  178  A    between atoms: _437  and  _439
REMARK  179  A    between atoms: _439  and  _440
REMARK  180  A    between atoms: _439  and  _442
REMARK  181  A    between atoms: _442  and  _443
REMARK  182  A    between atoms: _446  and  _448
REMARK  183  A    between atoms: _448  and  _449
REMARK  184  A    between atoms: _448  and  _451
REMARK  185  A    between atoms: _451  and  _452
REMARK  186  A    between atoms: _452  and  _453
REMARK  187  A    between atoms: _455  and  _457
REMARK  188  A    between atoms: _457  and  _458
REMARK  189  A    between atoms: _457  and  _460
REMARK  190  A    between atoms: _460  and  _461
REMARK  191  A    between atoms: _466  and  _467
REMARK  192  A    between atoms: _469  and  _471
REMARK  193  A    between atoms: _471  and  _472
REMARK  194  A    between atoms: _476  and  _477
REMARK  195  A    between atoms: _482  and  _484
REMARK  196  A    between atoms: _484  and  _485
REMARK  197  A    between atoms: _484  and  _487
REMARK  198  A    between atoms: _487  and  _488
REMARK  199  A    between atoms: _491  and  _493
REMARK  200  A    between atoms: _493  and  _494
REMARK  201  A    between atoms: _493  and  _496
REMARK  202  A    between atoms: _496  and  _497
REMARK  203  A    between atoms: _507  and  _509
REMARK  204  A    between atoms: _509  and  _510
REMARK  205  A    between atoms: _509  and  _512
REMARK  206  A    between atoms: _514  and  _516
REMARK  207  A    between atoms: _516  and  _517
REMARK  208  A    between atoms: _516  and  _519
REMARK  209  A    between atoms: _519  and  _520
REMARK  210  A    between atoms: _520  and  _521
REMARK  211  A    between atoms: _526  and  _528
REMARK  212  A    between atoms: _528  and  _529
REMARK  213  A    between atoms: _528  and  _531
REMARK  214  A    between atoms: _531  and  _532
REMARK  215  A    between atoms: _535  and  _537
REMARK  216  A    between atoms: _537  and  _538
REMARK  217  A    between atoms: _537  and  _540
REMARK  218  A    between atoms: _540  and  _541
REMARK  219  A    between atoms: _546  and  _547
REMARK  220  A    between atoms: _549  and  _551
REMARK  221  A    between atoms: _551  and  _552
REMARK  222  A    between atoms: _554  and  _556
REMARK  223  A    between atoms: _556  and  _557
REMARK  224  A    between atoms: _560  and  _562
REMARK  225  A    between atoms: _562  and  _563
REMARK  226  A    between atoms: _562  and  _565
REMARK  227  A    between atoms: _567  and  _569
REMARK  228  A    between atoms: _569  and  _570
REMARK  229  A    between atoms: _569  and  _572
REMARK  230  A    between atoms: _572  and  _573
REMARK  231  A    between atoms: _578  and  _579
REMARK  232  A    between atoms: _581  and  _583
REMARK  233  A    between atoms: _583  and  _584
REMARK  234  A    between atoms: _583  and  _586
REMARK  235  A    between atoms: _586  and  _587
REMARK  236  A    between atoms: _590  and  _592
REMARK  237  A    between atoms: _592  and  _593
REMARK  238  A    between atoms: _592  and  _595
REMARK  239  A    between atoms: _595  and  _596
REMARK  240  A    between atoms: _601  and  _603
REMARK  241  A    between atoms: _603  and  _604
REMARK  242  A    between atoms: _603  and  _606
REMARK  243  A    between atoms: _606  and  _607
REMARK  244  A    between atoms: _617  and  _619
REMARK  245  A    between atoms: _619  and  _620
REMARK  246  A    between atoms: _619  and  _622
REMARK  247  A    between atoms: _622  and  _623
REMARK  248  A    between atoms: _629  and  _631
REMARK  249  A    between atoms: _631  and  _632
REMARK  250  A    between atoms: _635  and  _637
REMARK  251  A    between atoms: _637  and  _638
REMARK  252  A    between atoms: _640  and  _642
REMARK  253  A    between atoms: _642  and  _643
REMARK  254  A    between atoms: _642  and  _645
REMARK  255  A    between atoms: _645  and  _646
REMARK  256  A    between atoms: _651  and  _652
REMARK  257  A    between atoms: _654  and  _656
REMARK  258  A    between atoms: _656  and  _657
REMARK  259  A    between atoms: _656  and  _659
REMARK  260  A    between atoms: _659  and  _660
REMARK  261  A    between atoms: _662  and  _664
REMARK  262  A    between atoms: _664  and  _665
REMARK                            x       y       z     vdW  Elec       q    Type
REMARK                         _______ _______ _______ _____ _____    ______ ____
ROOT
ATOM      1  O   HOH     1     -21.119  -9.844  20.865  0.00  0.00    +0.000 OA
ENDROOT
TORSDOF 0
REMARK  Name = ../refined-set-2016/3hky/3hky_pocket.pdb
REMARK  262 active torsions:
REMARK  status: ('A' for Active; 'I' for Inactive)
REMARK    1  A    between atoms: _1  and  _3
REMARK    2  A    between atoms: _3  and  _4
REMARK    3  A    between atoms: _3  and  _6
REMARK    4  A    between atoms: _6  and  _7
REMARK    5  A    between atoms: _7  and  _8
REMARK    6  A    between atoms: _8  and  _9
REMARK    7  A    between atoms: _9  and  _10
REMARK    8  A    between atoms: _14  and  _16
REMARK    9  A    between atoms: _16  and  _17
REMARK   10  A    between atoms: _16  and  _19
REMARK   11  A    between atoms: _19  and  _20
REMARK   12  A    between atoms: _20  and  _21
REMARK   13  A    between atoms: _24  and  _26
REMARK   14  A    between atoms: _26  and  _27
REMARK   15  A    between atoms: _26  and  _29
REMARK   16  A    between atoms: _29  and  _30
REMARK   17  A    between atoms: _30  and  _31
REMARK   18  A    between atoms: _31  and  _32
REMARK   19  A    between atoms: _41  and  _43
REMARK   20  A    between atoms: _43  and  _44
REMARK   21  A    between atoms: _46  and  _48
REMARK   22  A    between atoms: _48  and  _49
REMARK   23  A    between atoms: _48  and  _51
REMARK   24  A    between atoms: _51  and  _52
REMARK   25  A    between atoms: _58  and  _60
REMARK   26  A    between atoms: _60  and  _61
REMARK   27  A    between atoms: _60  and  _63
REMARK   28  A    between atoms: _63  and  _64
REMARK   29  A    between atoms: _69  and  _70
REMARK   30  A    between atoms: _72  and  _74
REMARK   31  A    between atoms: _74  and  _75
REMARK   32  A    between atoms: _74  and  _77
REMARK   33  A    between atoms: _77  and  _78
REMARK   34  A    between atoms: _81  and  _82
REMARK   35  A    between atoms: _87  and  _89
REMARK   36  A    between atoms: _89  and  _90
REMARK   37  A    between atoms: _89  and  _92
REMARK   38  A    between atoms: _92  and  _93
REMARK   39  A    between atoms: _93  and  _94
REMARK   40  A    between atoms: _94  and  _95
REMARK   41  A    between atoms: _95  and  _96
REMARK   42  A    between atoms: _100  and  _102
REMARK   43  A    between atoms: _102  and  _103
REMARK   44  A    between atoms: _102  and  _105
REMARK   45  A    between atoms: _105  and  _106
REMARK   46  A    between atoms: _106  and  _107
REMARK   47  A    between atoms: _112  and  _114
REMARK   48  A    between atoms: _114  and  _115
REMARK   49  A    between atoms: _114  and  _117
REMARK   50  A    between atoms: _117  and  _118
REMARK   51  A    between atoms: _118  and  _119
REMARK   52  A    between atoms: _119  and  _120
REMARK   53  A    between atoms: _129  and  _131
REMARK   54  A    between atoms: _131  and  _132
REMARK   55  A    between atoms: _131  and  _134
REMARK   56  A    between atoms: _137  and  _139
REMARK   57  A    between atoms: _139  and  _140
REMARK   58  A    between atoms: _139  and  _142
REMARK   59  A    between atoms: _142  and  _143
REMARK   60  A    between atoms: _146  and  _148
REMARK   61  A    between atoms: _148  and  _149
REMARK   62  A    between atoms: _148  and  _151
REMARK   63  A    between atoms: _151  and  _152
REMARK   64  A    between atoms: _155  and  _157
REMARK   65  A    between atoms: _157  and  _158
REMARK   66  A    between atoms: _157  and  _160
REMARK   67  A    between atoms: _160  and  _161
REMARK   68  A    between atoms: _163  and  _165
REMARK   69  A    between atoms: _165  and  _166
REMARK   70  A    between atoms: _165  and  _168
REMARK   71  A    between atoms: _168  and  _169
REMARK   72  A    between atoms: _172  and  _174
REMARK   73  A    between atoms: _174  and  _175
REMARK   74  A    between atoms: _174  and  _177
REMARK   75  A    between atoms: _177  and  _178
REMARK   76  A    between atoms: _180  and  _182
REMARK   77  A    between atoms: _182  and  _183
REMARK   78  A    between atoms: _182  and  _185
REMARK   79  A    between atoms: _185  and  _186
REMARK   80  A    between atoms: _191  and  _193
REMARK   81  A    between atoms: _193  and  _194
REMARK   82  A    between atoms: _193  and  _196
REMARK   83  A    between atoms: _196  and  _197
REMARK   84  A    between atoms: _200  and  _202
REMARK   85  A    between atoms: _202  and  _203
REMARK   86  A    between atoms: _202  and  _205
REMARK   87  A    between atoms: _205  and  _206
REMARK   88  A    between atoms: _211  and  _213
REMARK   89  A    between atoms: _213  and  _214
REMARK   90  A    between atoms: _216  and  _218
REMARK   91  A    between atoms: _218  and  _219
REMARK   92  A    between atoms: _218  and  _221
REMARK   93  A    between atoms: _221  and  _222
REMARK   94  A    between atoms: _225  and  _227
REMARK   95  A    between atoms: _227  and  _228
REMARK   96  A    between atoms: _227  and  _230
REMARK   97  A    between atoms: _230  and  _231
REMARK   98  A    between atoms: _234  and  _236
REMARK   99  A    between atoms: _236  and  _237
REMARK  100  A    between atoms: _236  and  _239
REMARK  101  A    between atoms: _239  and  _240
REMARK  102  A    between atoms: _242  and  _244
REMARK  103  A    between atoms: _244  and  _245
REMARK  104  A    between atoms: _244  and  _247
REMARK  105  A    between atoms: _249  and  _251
REMARK  106  A    between atoms: _251  and  _252
REMARK  107  A    between atoms: _251  and  _254
REMARK  108  A    between atoms: _254  and  _255
REMARK  109  A    between atoms: _257  and  _259
REMARK  110  A    between atoms: _259  and  _260
REMARK  111  A    between atoms: _259  and  _262
REMARK  112  A    between atoms: _262  and  _263
REMARK  113  A    between atoms: _265  and  _267
REMARK  114  A    between atoms: _267  and  _268
REMARK  115  A    between atoms: _267  and  _270
REMARK  116  A    between atoms: _270  and  _271
REMARK  117  A    between atoms: _276  and  _278
REMARK  118  A    between atoms: _278  and  _279
REMARK  119  A    between atoms: _278  and  _281
REMARK  120  A    between atoms: _281  and  _282
REMARK  121  A    between atoms: _287  and  _288
REMARK  122  A    between atoms: _290  and  _292
REMARK  123  A    between atoms: _292  and  _293
REMARK  124  A    between atoms: _292  and  _295
REMARK  125  A    between atoms: _295  and  _296
REMARK  126  A    between atoms: _299  and  _301
REMARK  127  A    between atoms: _301  and  _302
REMARK  128  A    between atoms: _301  and  _304
REMARK  129  A    between atoms: _304  and  _305
REMARK  130  A    between atoms: _308  and  _310
REMARK  131  A    between atoms: _310  and  _311
REMARK  132  A    between atoms: _310  and  _313
REMARK  133  A    between atoms: _313  and  _314
REMARK  134  A    between atoms: _314  and  _315
REMARK  135  A    between atoms: _315  and  _316
REMARK  136  A    between atoms: _326  and  _327
REMARK  137  A    between atoms: _332  and  _334
REMARK  138  A    between atoms: _334  and  _335
REMARK  139  A    between atoms: _334  and  _337
REMARK  140  A    between atoms: _337  and  _338
REMARK  141  A    between atoms: _338  and  _339
REMARK  142  A    between atoms: _339  and  _340
REMARK  143  A    between atoms: _349  and  _351
REMARK  144  A    between atoms: _351  and  _352
REMARK  145  A    between atoms: _351  and  _354
REMARK  146  A    between atoms: _354  and  _355
REMARK  147  A    between atoms: _355  and  _356
REMARK  148  A    between atoms: _359  and  _361
REMARK  149  A    between atoms: _361  and  _362
REMARK  150  A    between atoms: _361  and  _364
REMARK  151  A    between atoms: _364  and  _365
REMARK  152  A    between atoms: _368  and  _370
REMARK  153  A    between atoms: _370  and  _371
REMARK  154  A    between atoms: _370  and  _373
REMARK  155  A    between atoms: _373  and  _374
REMARK  156  A    between atoms: _379  and  _381
REMARK  157  A    between atoms: _381  and  _382
REMARK  158  A    between atoms: _381  and  _384
REMARK  159  A    between atoms: _384  and  _385
REMARK  160  A    between atoms: _387  and  _389
REMARK  161  A    between atoms: _389  and  _390
REMARK  162  A    between atoms: _389  and  _392
REMARK  163  A    between atoms: _392  and  _393
REMARK  164  A    between atoms: _403  and  _405
REMARK  165  A    between atoms: _405  and  _406
REMARK  166  A    between atoms: _405  and  _408
REMARK  167  A    between atoms: _408  and  _409
REMARK  168  A    between atoms: _412  and  _414
REMARK  169  A    between atoms: _414  and  _415
REMARK  170  A    between atoms: _417  and  _419
REMARK  171  A    between atoms: _419  and  _420
REMARK  172  A    between atoms: _419  and  _422
REMARK  173  A    between atoms: _422  and  _423
REMARK  174  A    between atoms: _428  and  _430
REMARK  175  A    between atoms: _430  and  _431
REMARK  176  A    between atoms: _430  and  _433
REMARK  177  A    between atoms: _433  and  _434
REMARK  178  A    between atoms: _437  and  _439
REMARK  179  A    between atoms: _439  and  _440
REMARK  180  A    between atoms: _439  and  _442
REMARK  181  A    between atoms: _442  and  _443
REMARK  182  A    between atoms: _446  and  _448
REMARK  183  A    between atoms: _448  and  _449
REMARK  184  A    between atoms: _448  and  _451
REMARK  185  A    between atoms: _451  and  _452
REMARK  186  A    between atoms: _452  and  _453
REMARK  187  A    between atoms: _455  and  _457
REMARK  188  A    between atoms: _457  and  _458
REMARK  189  A    between atoms: _457  and  _460
REMARK  190  A    between atoms: _460  and  _461
REMARK  191  A    between atoms: _466  and  _467
REMARK  192  A    between atoms: _469  and  _471
REMARK  193  A    between atoms: _471  and  _472
REMARK  194  A    between atoms: _476  and  _477
REMARK  195  A    between atoms: _482  and  _484
REMARK  196  A    between atoms: _484  and  _485
REMARK  197  A    between atoms: _484  and  _487
REMARK  198  A    between atoms: _487  and  _488
REMARK  199  A    between atoms: _491  and  _493
REMARK  200  A    between atoms: _493  and  _494
REMARK  201  A    between atoms: _493  and  _496
REMARK  202  A    between atoms: _496  and  _497
REMARK  203  A    between atoms: _507  and  _509
REMARK  204  A    between atoms: _509  and  _510
REMARK  205  A    between atoms: _509  and  _512
REMARK  206  A    between atoms: _514  and  _516
REMARK  207  A    between atoms: _516  and  _517
REMARK  208  A    between atoms: _516  and  _519
REMARK  209  A    between atoms: _519  and  _520
REMARK  210  A    between atoms: _520  and  _521
REMARK  211  A    between atoms: _526  and  _528
REMARK  212  A    between atoms: _528  and  _529
REMARK  213  A    between atoms: _528  and  _531
REMARK  214  A    between atoms: _531  and  _532
REMARK  215  A    between atoms: _535  and  _537
REMARK  216  A    between atoms: _537  and  _538
REMARK  217  A    between atoms: _537  and  _540
REMARK  218  A    between atoms: _540  and  _541
REMARK  219  A    between atoms: _546  and  _547
REMARK  220  A    between atoms: _549  and  _551
REMARK  221  A    between atoms: _551  and  _552
REMARK  222  A    between atoms: _554  and  _556
REMARK  223  A    between atoms: _556  and  _557
REMARK  224  A    between atoms: _560  and  _562
REMARK  225  A    between atoms: _562  and  _563
REMARK  226  A    between atoms: _562  and  _565
REMARK  227  A    between atoms: _567  and  _569
REMARK  228  A    between atoms: _569  and  _570
REMARK  229  A    between atoms: _569  and  _572
REMARK  230  A    between atoms: _572  and  _573
REMARK  231  A    between atoms: _578  and  _579
REMARK  232  A    between atoms: _581  and  _583
REMARK  233  A    between atoms: _583  and  _584
REMARK  234  A    between atoms: _583  and  _586
REMARK  235  A    between atoms: _586  and  _587
REMARK  236  A    between atoms: _590  and  _592
REMARK  237  A    between atoms: _592  and  _593
REMARK  238  A    between atoms: _592  and  _595
REMARK  239  A    between atoms: _595  and  _596
REMARK  240  A    between atoms: _601  and  _603
REMARK  241  A    between atoms: _603  and  _604
REMARK  242  A    between atoms: _603  and  _606
REMARK  243  A    between atoms: _606  and  _607
REMARK  244  A    between atoms: _617  and  _619
REMARK  245  A    between atoms: _619  and  _620
REMARK  246  A    between atoms: _619  and  _622
REMARK  247  A    between atoms: _622  and  _623
REMARK  248  A    between atoms: _629  and  _631
REMARK  249  A    between atoms: _631  and  _632
REMARK  250  A    between atoms: _635  and  _637
REMARK  251  A    between atoms: _637  and  _638
REMARK  252  A    between atoms: _640  and  _642
REMARK  253  A    between atoms: _642  and  _643
REMARK  254  A    between atoms: _642  and  _645
REMARK  255  A    between atoms: _645  and  _646
REMARK  256  A    between atoms: _651  and  _652
REMARK  257  A    between atoms: _654  and  _656
REMARK  258  A    between atoms: _656  and  _657
REMARK  259  A    between atoms: _656  and  _659
REMARK  260  A    between atoms: _659  and  _660
REMARK  261  A    between atoms: _662  and  _664
REMARK  262  A    between atoms: _664  and  _665
REMARK                            x       y       z     vdW  Elec       q    Type
REMARK                         _______ _______ _______ _____ _____    ______ ____
ROOT
ATOM      1  O   HOH     1     -20.480 -13.217  35.869  0.00  0.00    +0.000 OA
ENDROOT
TORSDOF 0
REMARK  Name = ../refined-set-2016/3hky/3hky_pocket.pdb
REMARK  262 active torsions:
REMARK  status: ('A' for Active; 'I' for Inactive)
REMARK    1  A    between atoms: _1  and  _3
REMARK    2  A    between atoms: _3  and  _4
REMARK    3  A    between atoms: _3  and  _6
REMARK    4  A    between atoms: _6  and  _7
REMARK    5  A    between atoms: _7  and  _8
REMARK    6  A    between atoms: _8  and  _9
REMARK    7  A    between atoms: _9  and  _10
REMARK    8  A    between atoms: _14  and  _16
REMARK    9  A    between atoms: _16  and  _17
REMARK   10  A    between atoms: _16  and  _19
REMARK   11  A    between atoms: _19  and  _20
REMARK   12  A    between atoms: _20  and  _21
REMARK   13  A    between atoms: _24  and  _26
REMARK   14  A    between atoms: _26  and  _27
REMARK   15  A    between atoms: _26  and  _29
REMARK   16  A    between atoms: _29  and  _30
REMARK   17  A    between atoms: _30  and  _31
REMARK   18  A    between atoms: _31  and  _32
REMARK   19  A    between atoms: _41  and  _43
REMARK   20  A    between atoms: _43  and  _44
REMARK   21  A    between atoms: _46  and  _48
REMARK   22  A    between atoms: _48  and  _49
REMARK   23  A    between atoms: _48  and  _51
REMARK   24  A    between atoms: _51  and  _52
REMARK   25  A    between atoms: _58  and  _60
REMARK   26  A    between atoms: _60  and  _61
REMARK   27  A    between atoms: _60  and  _63
REMARK   28  A    between atoms: _63  and  _64
REMARK   29  A    between atoms: _69  and  _70
REMARK   30  A    between atoms: _72  and  _74
REMARK   31  A    between atoms: _74  and  _75
REMARK   32  A    between atoms: _74  and  _77
REMARK   33  A    between atoms: _77  and  _78
REMARK   34  A    between atoms: _81  and  _82
REMARK   35  A    between atoms: _87  and  _89
REMARK   36  A    between atoms: _89  and  _90
REMARK   37  A    between atoms: _89  and  _92
REMARK   38  A    between atoms: _92  and  _93
REMARK   39  A    between atoms: _93  and  _94
REMARK   40  A    between atoms: _94  and  _95
REMARK   41  A    between atoms: _95  and  _96
REMARK   42  A    between atoms: _100  and  _102
REMARK   43  A    between atoms: _102  and  _103
REMARK   44  A    between atoms: _102  and  _105
REMARK   45  A    between atoms: _105  and  _106
REMARK   46  A    between atoms: _106  and  _107
REMARK   47  A    between atoms: _112  and  _114
REMARK   48  A    between atoms: _114  and  _115
REMARK   49  A    between atoms: _114  and  _117
REMARK   50  A    between atoms: _117  and  _118
REMARK   51  A    between atoms: _118  and  _119
REMARK   52  A    between atoms: _119  and  _120
REMARK   53  A    between atoms: _129  and  _131
REMARK   54  A    between atoms: _131  and  _132
REMARK   55  A    between atoms: _131  and  _134
REMARK   56  A    between atoms: _137  and  _139
REMARK   57  A    between atoms: _139  and  _140
REMARK   58  A    between atoms: _139  and  _142
REMARK   59  A    between atoms: _142  and  _143
REMARK   60  A    between atoms: _146  and  _148
REMARK   61  A    between atoms: _148  and  _149
REMARK   62  A    between atoms: _148  and  _151
REMARK   63  A    between atoms: _151  and  _152
REMARK   64  A    between atoms: _155  and  _157
REMARK   65  A    between atoms: _157  and  _158
REMARK   66  A    between atoms: _157  and  _160
REMARK   67  A    between atoms: _160  and  _161
REMARK   68  A    between atoms: _163  and  _165
REMARK   69  A    between atoms: _165  and  _166
REMARK   70  A    between atoms: _165  and  _168
REMARK   71  A    between atoms: _168  and  _169
REMARK   72  A    between atoms: _172  and  _174
REMARK   73  A    between atoms: _174  and  _175
REMARK   74  A    between atoms: _174  and  _177
REMARK   75  A    between atoms: _177  and  _178
REMARK   76  A    between atoms: _180  and  _182
REMARK   77  A    between atoms: _182  and  _183
REMARK   78  A    between atoms: _182  and  _185
REMARK   79  A    between atoms: _185  and  _186
REMARK   80  A    between atoms: _191  and  _193
REMARK   81  A    between atoms: _193  and  _194
REMARK   82  A    between atoms: _193  and  _196
REMARK   83  A    between atoms: _196  and  _197
REMARK   84  A    between atoms: _200  and  _202
REMARK   85  A    between atoms: _202  and  _203
REMARK   86  A    between atoms: _202  and  _205
REMARK   87  A    between atoms: _205  and  _206
REMARK   88  A    between atoms: _211  and  _213
REMARK   89  A    between atoms: _213  and  _214
REMARK   90  A    between atoms: _216  and  _218
REMARK   91  A    between atoms: _218  and  _219
REMARK   92  A    between atoms: _218  and  _221
REMARK   93  A    between atoms: _221  and  _222
REMARK   94  A    between atoms: _225  and  _227
REMARK   95  A    between atoms: _227  and  _228
REMARK   96  A    between atoms: _227  and  _230
REMARK   97  A    between atoms: _230  and  _231
REMARK   98  A    between atoms: _234  and  _236
REMARK   99  A    between atoms: _236  and  _237
REMARK  100  A    between atoms: _236  and  _239
REMARK  101  A    between atoms: _239  and  _240
REMARK  102  A    between atoms: _242  and  _244
REMARK  103  A    between atoms: _244  and  _245
REMARK  104  A    between atoms: _244  and  _247
REMARK  105  A    between atoms: _249  and  _251
REMARK  106  A    between atoms: _251  and  _252
REMARK  107  A    between atoms: _251  and  _254
REMARK  108  A    between atoms: _254  and  _255
REMARK  109  A    between atoms: _257  and  _259
REMARK  110  A    between atoms: _259  and  _260
REMARK  111  A    between atoms: _259  and  _262
REMARK  112  A    between atoms: _262  and  _263
REMARK  113  A    between atoms: _265  and  _267
REMARK  114  A    between atoms: _267  and  _268
REMARK  115  A    between atoms: _267  and  _270
REMARK  116  A    between atoms: _270  and  _271
REMARK  117  A    between atoms: _276  and  _278
REMARK  118  A    between atoms: _278  and  _279
REMARK  119  A    between atoms: _278  and  _281
REMARK  120  A    between atoms: _281  and  _282
REMARK  121  A    between atoms: _287  and  _288
REMARK  122  A    between atoms: _290  and  _292
REMARK  123  A    between atoms: _292  and  _293
REMARK  124  A    between atoms: _292  and  _295
REMARK  125  A    between atoms: _295  and  _296
REMARK  126  A    between atoms: _299  and  _301
REMARK  127  A    between atoms: _301  and  _302
REMARK  128  A    between atoms: _301  and  _304
REMARK  129  A    between atoms: _304  and  _305
REMARK  130  A    between atoms: _308  and  _310
REMARK  131  A    between atoms: _310  and  _311
REMARK  132  A    between atoms: _310  and  _313
REMARK  133  A    between atoms: _313  and  _314
REMARK  134  A    between atoms: _314  and  _315
REMARK  135  A    between atoms: _315  and  _316
REMARK  136  A    between atoms: _326  and  _327
REMARK  137  A    between atoms: _332  and  _334
REMARK  138  A    between atoms: _334  and  _335
REMARK  139  A    between atoms: _334  and  _337
REMARK  140  A    between atoms: _337  and  _338
REMARK  141  A    between atoms: _338  and  _339
REMARK  142  A    between atoms: _339  and  _340
REMARK  143  A    between atoms: _349  and  _351
REMARK  144  A    between atoms: _351  and  _352
REMARK  145  A    between atoms: _351  and  _354
REMARK  146  A    between atoms: _354  and  _355
REMARK  147  A    between atoms: _355  and  _356
REMARK  148  A    between atoms: _359  and  _361
REMARK  149  A    between atoms: _361  and  _362
REMARK  150  A    between atoms: _361  and  _364
REMARK  151  A    between atoms: _364  and  _365
REMARK  152  A    between atoms: _368  and  _370
REMARK  153  A    between atoms: _370  and  _371
REMARK  154  A    between atoms: _370  and  _373
REMARK  155  A    between atoms: _373  and  _374
REMARK  156  A    between atoms: _379  and  _381
REMARK  157  A    between atoms: _381  and  _382
REMARK  158  A    between atoms: _381  and  _384
REMARK  159  A    between atoms: _384  and  _385
REMARK  160  A    between atoms: _387  and  _389
REMARK  161  A    between atoms: _389  and  _390
REMARK  162  A    between atoms: _389  and  _392
REMARK  163  A    between atoms: _392  and  _393
REMARK  164  A    between atoms: _403  and  _405
REMARK  165  A    between atoms: _405  and  _406
REMARK  166  A    between atoms: _405  and  _408
REMARK  167  A    between atoms: _408  and  _409
REMARK  168  A    between atoms: _412  and  _414
REMARK  169  A    between atoms: _414  and  _415
REMARK  170  A    between atoms: _417  and  _419
REMARK  171  A    between atoms: _419  and  _420
REMARK  172  A    between atoms: _419  and  _422
REMARK  173  A    between atoms: _422  and  _423
REMARK  174  A    between atoms: _428  and  _430
REMARK  175  A    between atoms: _430  and  _431
REMARK  176  A    between atoms: _430  and  _433
REMARK  177  A    between atoms: _433  and  _434
REMARK  178  A    between atoms: _437  and  _439
REMARK  179  A    between atoms: _439  and  _440
REMARK  180  A    between atoms: _439  and  _442
REMARK  181  A    between atoms: _442  and  _443
REMARK  182  A    between atoms: _446  and  _448
REMARK  183  A    between atoms: _448  and  _449
REMARK  184  A    between atoms: _448  and  _451
REMARK  185  A    between atoms: _451  and  _452
REMARK  186  A    between atoms: _452  and  _453
REMARK  187  A    between atoms: _455  and  _457
REMARK  188  A    between atoms: _457  and  _458
REMARK  189  A    between atoms: _457  and  _460
REMARK  190  A    between atoms: _460  and  _461
REMARK  191  A    between atoms: _466  and  _467
REMARK  192  A    between atoms: _469  and  _471
REMARK  193  A    between atoms: _471  and  _472
REMARK  194  A    between atoms: _476  and  _477
REMARK  195  A    between atoms: _482  and  _484
REMARK  196  A    between atoms: _484  and  _485
REMARK  197  A    between atoms: _484  and  _487
REMARK  198  A    between atoms: _487  and  _488
REMARK  199  A    between atoms: _491  and  _493
REMARK  200  A    between atoms: _493  and  _494
REMARK  201  A    between atoms: _493  and  _496
REMARK  202  A    between atoms: _496  and  _497
REMARK  203  A    between atoms: _507  and  _509
REMARK  204  A    between atoms: _509  and  _510
REMARK  205  A    between atoms: _509  and  _512
REMARK  206  A    between atoms: _514  and  _516
REMARK  207  A    between atoms: _516  and  _517
REMARK  208  A    between atoms: _516  and  _519
REMARK  209  A    between atoms: _519  and  _520
REMARK  210  A    between atoms: _520  and  _521
REMARK  211  A    between atoms: _526  and  _528
REMARK  212  A    between atoms: _528  and  _529
REMARK  213  A    between atoms: _528  and  _531
REMARK  214  A    between atoms: _531  and  _532
REMARK  215  A    between atoms: _535  and  _537
REMARK  216  A    between atoms: _537  and  _538
REMARK  217  A    between atoms: _537  and  _540
REMARK  218  A    between atoms: _540  and  _541
REMARK  219  A    between atoms: _546  and  _547
REMARK  220  A    between atoms: _549  and  _551
REMARK  221  A    between atoms: _551  and  _552
REMARK  222  A    between atoms: _554  and  _556
REMARK  223  A    between atoms: _556  and  _557
REMARK  224  A    between atoms: _560  and  _562
REMARK  225  A    between atoms: _562  and  _563
REMARK  226  A    between atoms: _562  and  _565
REMARK  227  A    between atoms: _567  and  _569
REMARK  228  A    between atoms: _569  and  _570
REMARK  229  A    between atoms: _569  and  _572
REMARK  230  A    between atoms: _572  and  _573
REMARK  231  A    between atoms: _578  and  _579
REMARK  232  A    between atoms: _581  and  _583
REMARK  233  A    between atoms: _583  and  _584
REMARK  234  A    between atoms: _583  and  _586
REMARK  235  A    between atoms: _586  and  _587
REMARK  236  A    between atoms: _590  and  _592
REMARK  237  A    between atoms: _592  and  _593
REMARK  238  A    between atoms: _592  and  _595
REMARK  239  A    between atoms: _595  and  _596
REMARK  240  A    between atoms: _601  and  _603
REMARK  241  A    between atoms: _603  and  _604
REMARK  242  A    between atoms: _603  and  _606
REMARK  243  A    between atoms: _606  and  _607
REMARK  244  A    between atoms: _617  and  _619
REMARK  245  A    between atoms: _619  and  _620
REMARK  246  A    between atoms: _619  and  _622
REMARK  247  A    between atoms: _622  and  _623
REMARK  248  A    between atoms: _629  and  _631
REMARK  249  A    between atoms: _631  and  _632
REMARK  250  A    between atoms: _635  and  _637
REMARK  251  A    between atoms: _637  and  _638
REMARK  252  A    between atoms: _640  and  _642
REMARK  253  A    between atoms: _642  and  _643
REMARK  254  A    between atoms: _642  and  _645
REMARK  255  A    between atoms: _645  and  _646
REMARK  256  A    between atoms: _651  and  _652
REMARK  257  A    between atoms: _654  and  _656
REMARK  258  A    between atoms: _656  and  _657
REMARK  259  A    between atoms: _656  and  _659
REMARK  260  A    between atoms: _659  and  _660
REMARK  261  A    between atoms: _662  and  _664
REMARK  262  A    between atoms: _664  and  _665
REMARK                            x       y       z     vdW  Elec       q    Type
REMARK                         _______ _______ _______ _____ _____    ______ ____
ROOT
ATOM      1  O   HOH     1     -22.532 -10.049  25.001  0.00  0.00    +0.000 OA
ENDROOT
TORSDOF 0
REMARK  Name = ../refined-set-2016/3hky/3hky_pocket.pdb
REMARK  262 active torsions:
REMARK  status: ('A' for Active; 'I' for Inactive)
REMARK    1  A    between atoms: _1  and  _3
REMARK    2  A    between atoms: _3  and  _4
REMARK    3  A    between atoms: _3  and  _6
REMARK    4  A    between atoms: _6  and  _7
REMARK    5  A    between atoms: _7  and  _8
REMARK    6  A    between atoms: _8  and  _9
REMARK    7  A    between atoms: _9  and  _10
REMARK    8  A    between atoms: _14  and  _16
REMARK    9  A    between atoms: _16  and  _17
REMARK   10  A    between atoms: _16  and  _19
REMARK   11  A    between atoms: _19  and  _20
REMARK   12  A    between atoms: _20  and  _21
REMARK   13  A    between atoms: _24  and  _26
REMARK   14  A    between atoms: _26  and  _27
REMARK   15  A    between atoms: _26  and  _29
REMARK   16  A    between atoms: _29  and  _30
REMARK   17  A    between atoms: _30  and  _31
REMARK   18  A    between atoms: _31  and  _32
REMARK   19  A    between atoms: _41  and  _43
REMARK   20  A    between atoms: _43  and  _44
REMARK   21  A    between atoms: _46  and  _48
REMARK   22  A    between atoms: _48  and  _49
REMARK   23  A    between atoms: _48  and  _51
REMARK   24  A    between atoms: _51  and  _52
REMARK   25  A    between atoms: _58  and  _60
REMARK   26  A    between atoms: _60  and  _61
REMARK   27  A    between atoms: _60  and  _63
REMARK   28  A    between atoms: _63  and  _64
REMARK   29  A    between atoms: _69  and  _70
REMARK   30  A    between atoms: _72  and  _74
REMARK   31  A    between atoms: _74  and  _75
REMARK   32  A    between atoms: _74  and  _77
REMARK   33  A    between atoms: _77  and  _78
REMARK   34  A    between atoms: _81  and  _82
REMARK   35  A    between atoms: _87  and  _89
REMARK   36  A    between atoms: _89  and  _90
REMARK   37  A    between atoms: _89  and  _92
REMARK   38  A    between atoms: _92  and  _93
REMARK   39  A    between atoms: _93  and  _94
REMARK   40  A    between atoms: _94  and  _95
REMARK   41  A    between atoms: _95  and  _96
REMARK   42  A    between atoms: _100  and  _102
REMARK   43  A    between atoms: _102  and  _103
REMARK   44  A    between atoms: _102  and  _105
REMARK   45  A    between atoms: _105  and  _106
REMARK   46  A    between atoms: _106  and  _107
REMARK   47  A    between atoms: _112  and  _114
REMARK   48  A    between atoms: _114  and  _115
REMARK   49  A    between atoms: _114  and  _117
REMARK   50  A    between atoms: _117  and  _118
REMARK   51  A    between atoms: _118  and  _119
REMARK   52  A    between atoms: _119  and  _120
REMARK   53  A    between atoms: _129  and  _131
REMARK   54  A    between atoms: _131  and  _132
REMARK   55  A    between atoms: _131  and  _134
REMARK   56  A    between atoms: _137  and  _139
REMARK   57  A    between atoms: _139  and  _140
REMARK   58  A    between atoms: _139  and  _142
REMARK   59  A    between atoms: _142  and  _143
REMARK   60  A    between atoms: _146  and  _148
REMARK   61  A    between atoms: _148  and  _149
REMARK   62  A    between atoms: _148  and  _151
REMARK   63  A    between atoms: _151  and  _152
REMARK   64  A    between atoms: _155  and  _157
REMARK   65  A    between atoms: _157  and  _158
REMARK   66  A    between atoms: _157  and  _160
REMARK   67  A    between atoms: _160  and  _161
REMARK   68  A    between atoms: _163  and  _165
REMARK   69  A    between atoms: _165  and  _166
REMARK   70  A    between atoms: _165  and  _168
REMARK   71  A    between atoms: _168  and  _169
REMARK   72  A    between atoms: _172  and  _174
REMARK   73  A    between atoms: _174  and  _175
REMARK   74  A    between atoms: _174  and  _177
REMARK   75  A    between atoms: _177  and  _178
REMARK   76  A    between atoms: _180  and  _182
REMARK   77  A    between atoms: _182  and  _183
REMARK   78  A    between atoms: _182  and  _185
REMARK   79  A    between atoms: _185  and  _186
REMARK   80  A    between atoms: _191  and  _193
REMARK   81  A    between atoms: _193  and  _194
REMARK   82  A    between atoms: _193  and  _196
REMARK   83  A    between atoms: _196  and  _197
REMARK   84  A    between atoms: _200  and  _202
REMARK   85  A    between atoms: _202  and  _203
REMARK   86  A    between atoms: _202  and  _205
REMARK   87  A    between atoms: _205  and  _206
REMARK   88  A    between atoms: _211  and  _213
REMARK   89  A    between atoms: _213  and  _214
REMARK   90  A    between atoms: _216  and  _218
REMARK   91  A    between atoms: _218  and  _219
REMARK   92  A    between atoms: _218  and  _221
REMARK   93  A    between atoms: _221  and  _222
REMARK   94  A    between atoms: _225  and  _227
REMARK   95  A    between atoms: _227  and  _228
REMARK   96  A    between atoms: _227  and  _230
REMARK   97  A    between atoms: _230  and  _231
REMARK   98  A    between atoms: _234  and  _236
REMARK   99  A    between atoms: _236  and  _237
REMARK  100  A    between atoms: _236  and  _239
REMARK  101  A    between atoms: _239  and  _240
REMARK  102  A    between atoms: _242  and  _244
REMARK  103  A    between atoms: _244  and  _245
REMARK  104  A    between atoms: _244  and  _247
REMARK  105  A    between atoms: _249  and  _251
REMARK  106  A    between atoms: _251  and  _252
REMARK  107  A    between atoms: _251  and  _254
REMARK  108  A    between atoms: _254  and  _255
REMARK  109  A    between atoms: _257  and  _259
REMARK  110  A    between atoms: _259  and  _260
REMARK  111  A    between atoms: _259  and  _262
REMARK  112  A    between atoms: _262  and  _263
REMARK  113  A    between atoms: _265  and  _267
REMARK  114  A    between atoms: _267  and  _268
REMARK  115  A    between atoms: _267  and  _270
REMARK  116  A    between atoms: _270  and  _271
REMARK  117  A    between atoms: _276  and  _278
REMARK  118  A    between atoms: _278  and  _279
REMARK  119  A    between atoms: _278  and  _281
REMARK  120  A    between atoms: _281  and  _282
REMARK  121  A    between atoms: _287  and  _288
REMARK  122  A    between atoms: _290  and  _292
REMARK  123  A    between atoms: _292  and  _293
REMARK  124  A    between atoms: _292  and  _295
REMARK  125  A    between atoms: _295  and  _296
REMARK  126  A    between atoms: _299  and  _301
REMARK  127  A    between atoms: _301  and  _302
REMARK  128  A    between atoms: _301  and  _304
REMARK  129  A    between atoms: _304  and  _305
REMARK  130  A    between atoms: _308  and  _310
REMARK  131  A    between atoms: _310  and  _311
REMARK  132  A    between atoms: _310  and  _313
REMARK  133  A    between atoms: _313  and  _314
REMARK  134  A    between atoms: _314  and  _315
REMARK  135  A    between atoms: _315  and  _316
REMARK  136  A    between atoms: _326  and  _327
REMARK  137  A    between atoms: _332  and  _334
REMARK  138  A    between atoms: _334  and  _335
REMARK  139  A    between atoms: _334  and  _337
REMARK  140  A    between atoms: _337  and  _338
REMARK  141  A    between atoms: _338  and  _339
REMARK  142  A    between atoms: _339  and  _340
REMARK  143  A    between atoms: _349  and  _351
REMARK  144  A    between atoms: _351  and  _352
REMARK  145  A    between atoms: _351  and  _354
REMARK  146  A    between atoms: _354  and  _355
REMARK  147  A    between atoms: _355  and  _356
REMARK  148  A    between atoms: _359  and  _361
REMARK  149  A    between atoms: _361  and  _362
REMARK  150  A    between atoms: _361  and  _364
REMARK  151  A    between atoms: _364  and  _365
REMARK  152  A    between atoms: _368  and  _370
REMARK  153  A    between atoms: _370  and  _371
REMARK  154  A    between atoms: _370  and  _373
REMARK  155  A    between atoms: _373  and  _374
REMARK  156  A    between atoms: _379  and  _381
REMARK  157  A    between atoms: _381  and  _382
REMARK  158  A    between atoms: _381  and  _384
REMARK  159  A    between atoms: _384  and  _385
REMARK  160  A    between atoms: _387  and  _389
REMARK  161  A    between atoms: _389  and  _390
REMARK  162  A    between atoms: _389  and  _392
REMARK  163  A    between atoms: _392  and  _393
REMARK  164  A    between atoms: _403  and  _405
REMARK  165  A    between atoms: _405  and  _406
REMARK  166  A    between atoms: _405  and  _408
REMARK  167  A    between atoms: _408  and  _409
REMARK  168  A    between atoms: _412  and  _414
REMARK  169  A    between atoms: _414  and  _415
REMARK  170  A    between atoms: _417  and  _419
REMARK  171  A    between atoms: _419  and  _420
REMARK  172  A    between atoms: _419  and  _422
REMARK  173  A    between atoms: _422  and  _423
REMARK  174  A    between atoms: _428  and  _430
REMARK  175  A    between atoms: _430  and  _431
REMARK  176  A    between atoms: _430  and  _433
REMARK  177  A    between atoms: _433  and  _434
REMARK  178  A    between atoms: _437  and  _439
REMARK  179  A    between atoms: _439  and  _440
REMARK  180  A    between atoms: _439  and  _442
REMARK  181  A    between atoms: _442  and  _443
REMARK  182  A    between atoms: _446  and  _448
REMARK  183  A    between atoms: _448  and  _449
REMARK  184  A    between atoms: _448  and  _451
REMARK  185  A    between atoms: _451  and  _452
REMARK  186  A    between atoms: _452  and  _453
REMARK  187  A    between atoms: _455  and  _457
REMARK  188  A    between atoms: _457  and  _458
REMARK  189  A    between atoms: _457  and  _460
REMARK  190  A    between atoms: _460  and  _461
REMARK  191  A    between atoms: _466  and  _467
REMARK  192  A    between atoms: _469  and  _471
REMARK  193  A    between atoms: _471  and  _472
REMARK  194  A    between atoms: _476  and  _477
REMARK  195  A    between atoms: _482  and  _484
REMARK  196  A    between atoms: _484  and  _485
REMARK  197  A    between atoms: _484  and  _487
REMARK  198  A    between atoms: _487  and  _488
REMARK  199  A    between atoms: _491  and  _493
REMARK  200  A    between atoms: _493  and  _494
REMARK  201  A    between atoms: _493  and  _496
REMARK  202  A    between atoms: _496  and  _497
REMARK  203  A    between atoms: _507  and  _509
REMARK  204  A    between atoms: _509  and  _510
REMARK  205  A    between atoms: _509  and  _512
REMARK  206  A    between atoms: _514  and  _516
REMARK  207  A    between atoms: _516  and  _517
REMARK  208  A    between atoms: _516  and  _519
REMARK  209  A    between atoms: _519  and  _520
REMARK  210  A    between atoms: _520  and  _521
REMARK  211  A    between atoms: _526  and  _528
REMARK  212  A    between atoms: _528  and  _529
REMARK  213  A    between atoms: _528  and  _531
REMARK  214  A    between atoms: _531  and  _532
REMARK  215  A    between atoms: _535  and  _537
REMARK  216  A    between atoms: _537  and  _538
REMARK  217  A    between atoms: _537  and  _540
REMARK  218  A    between atoms: _540  and  _541
REMARK  219  A    between atoms: _546  and  _547
REMARK  220  A    between atoms: _549  and  _551
REMARK  221  A    between atoms: _551  and  _552
REMARK  222  A    between atoms: _554  and  _556
REMARK  223  A    between atoms: _556  and  _557
REMARK  224  A    between atoms: _560  and  _562
REMARK  225  A    between atoms: _562  and  _563
REMARK  226  A    between atoms: _562  and  _565
REMARK  227  A    between atoms: _567  and  _569
REMARK  228  A    between atoms: _569  and  _570
REMARK  229  A    between atoms: _569  and  _572
REMARK  230  A    between atoms: _572  and  _573
REMARK  231  A    between atoms: _578  and  _579
REMARK  232  A    between atoms: _581  and  _583
REMARK  233  A    between atoms: _583  and  _584
REMARK  234  A    between atoms: _583  and  _586
REMARK  235  A    between atoms: _586  and  _587
REMARK  236  A    between atoms: _590  and  _592
REMARK  237  A    between atoms: _592  and  _593
REMARK  238  A    between atoms: _592  and  _595
REMARK  239  A    between atoms: _595  and  _596
REMARK  240  A    between atoms: _601  and  _603
REMARK  241  A    between atoms: _603  and  _604
REMARK  242  A    between atoms: _603  and  _606
REMARK  243  A    between atoms: _606  and  _607
REMARK  244  A    between atoms: _617  and  _619
REMARK  245  A    between atoms: _619  and  _620
REMARK  246  A    between atoms: _619  and  _622
REMARK  247  A    between atoms: _622  and  _623
REMARK  248  A    between atoms: _629  and  _631
REMARK  249  A    between atoms: _631  and  _632
REMARK  250  A    between atoms: _635  and  _637
REMARK  251  A    between atoms: _637  and  _638
REMARK  252  A    between atoms: _640  and  _642
REMARK  253  A    between atoms: _642  and  _643
REMARK  254  A    between atoms: _642  and  _645
REMARK  255  A    between atoms: _645  and  _646
REMARK  256  A    between atoms: _651  and  _652
REMARK  257  A    between atoms: _654  and  _656
REMARK  258  A    between atoms: _656  and  _657
REMARK  259  A    between atoms: _656  and  _659
REMARK  260  A    between atoms: _659  and  _660
REMARK  261  A    between atoms: _662  and  _664
REMARK  262  A    between atoms: _664  and  _665
REMARK                            x       y       z     vdW  Elec       q    Type
REMARK                         _______ _______ _______ _____ _____    ______ ____
ROOT
ATOM      1  O   HOH     1     -15.966  -8.571  31.985  0.00  0.00    +0.000 OA
ENDROOT
TORSDOF 0
REMARK  Name = ../refined-set-2016/3hky/3hky_pocket.pdb
REMARK  262 active torsions:
REMARK  status: ('A' for Active; 'I' for Inactive)
REMARK    1  A    between atoms: _1  and  _3
REMARK    2  A    between atoms: _3  and  _4
REMARK    3  A    between atoms: _3  and  _6
REMARK    4  A    between atoms: _6  and  _7
REMARK    5  A    between atoms: _7  and  _8
REMARK    6  A    between atoms: _8  and  _9
REMARK    7  A    between atoms: _9  and  _10
REMARK    8  A    between atoms: _14  and  _16
REMARK    9  A    between atoms: _16  and  _17
REMARK   10  A    between atoms: _16  and  _19
REMARK   11  A    between atoms: _19  and  _20
REMARK   12  A    between atoms: _20  and  _21
REMARK   13  A    between atoms: _24  and  _26
REMARK   14  A    between atoms: _26  and  _27
REMARK   15  A    between atoms: _26  and  _29
REMARK   16  A    between atoms: _29  and  _30
REMARK   17  A    between atoms: _30  and  _31
REMARK   18  A    between atoms: _31  and  _32
REMARK   19  A    between atoms: _41  and  _43
REMARK   20  A    between atoms: _43  and  _44
REMARK   21  A    between atoms: _46  and  _48
REMARK   22  A    between atoms: _48  and  _49
REMARK   23  A    between atoms: _48  and  _51
REMARK   24  A    between atoms: _51  and  _52
REMARK   25  A    between atoms: _58  and  _60
REMARK   26  A    between atoms: _60  and  _61
REMARK   27  A    between atoms: _60  and  _63
REMARK   28  A    between atoms: _63  and  _64
REMARK   29  A    between atoms: _69  and  _70
REMARK   30  A    between atoms: _72  and  _74
REMARK   31  A    between atoms: _74  and  _75
REMARK   32  A    between atoms: _74  and  _77
REMARK   33  A    between atoms: _77  and  _78
REMARK   34  A    between atoms: _81  and  _82
REMARK   35  A    between atoms: _87  and  _89
REMARK   36  A    between atoms: _89  and  _90
REMARK   37  A    between atoms: _89  and  _92
REMARK   38  A    between atoms: _92  and  _93
REMARK   39  A    between atoms: _93  and  _94
REMARK   40  A    between atoms: _94  and  _95
REMARK   41  A    between atoms: _95  and  _96
REMARK   42  A    between atoms: _100  and  _102
REMARK   43  A    between atoms: _102  and  _103
REMARK   44  A    between atoms: _102  and  _105
REMARK   45  A    between atoms: _105  and  _106
REMARK   46  A    between atoms: _106  and  _107
REMARK   47  A    between atoms: _112  and  _114
REMARK   48  A    between atoms: _114  and  _115
REMARK   49  A    between atoms: _114  and  _117
REMARK   50  A    between atoms: _117  and  _118
REMARK   51  A    between atoms: _118  and  _119
REMARK   52  A    between atoms: _119  and  _120
REMARK   53  A    between atoms: _129  and  _131
REMARK   54  A    between atoms: _131  and  _132
REMARK   55  A    between atoms: _131  and  _134
REMARK   56  A    between atoms: _137  and  _139
REMARK   57  A    between atoms: _139  and  _140
REMARK   58  A    between atoms: _139  and  _142
REMARK   59  A    between atoms: _142  and  _143
REMARK   60  A    between atoms: _146  and  _148
REMARK   61  A    between atoms: _148  and  _149
REMARK   62  A    between atoms: _148  and  _151
REMARK   63  A    between atoms: _151  and  _152
REMARK   64  A    between atoms: _155  and  _157
REMARK   65  A    between atoms: _157  and  _158
REMARK   66  A    between atoms: _157  and  _160
REMARK   67  A    between atoms: _160  and  _161
REMARK   68  A    between atoms: _163  and  _165
REMARK   69  A    between atoms: _165  and  _166
REMARK   70  A    between atoms: _165  and  _168
REMARK   71  A    between atoms: _168  and  _169
REMARK   72  A    between atoms: _172  and  _174
REMARK   73  A    between atoms: _174  and  _175
REMARK   74  A    between atoms: _174  and  _177
REMARK   75  A    between atoms: _177  and  _178
REMARK   76  A    between atoms: _180  and  _182
REMARK   77  A    between atoms: _182  and  _183
REMARK   78  A    between atoms: _182  and  _185
REMARK   79  A    between atoms: _185  and  _186
REMARK   80  A    between atoms: _191  and  _193
REMARK   81  A    between atoms: _193  and  _194
REMARK   82  A    between atoms: _193  and  _196
REMARK   83  A    between atoms: _196  and  _197
REMARK   84  A    between atoms: _200  and  _202
REMARK   85  A    between atoms: _202  and  _203
REMARK   86  A    between atoms: _202  and  _205
REMARK   87  A    between atoms: _205  and  _206
REMARK   88  A    between atoms: _211  and  _213
REMARK   89  A    between atoms: _213  and  _214
REMARK   90  A    between atoms: _216  and  _218
REMARK   91  A    between atoms: _218  and  _219
REMARK   92  A    between atoms: _218  and  _221
REMARK   93  A    between atoms: _221  and  _222
REMARK   94  A    between atoms: _225  and  _227
REMARK   95  A    between atoms: _227  and  _228
REMARK   96  A    between atoms: _227  and  _230
REMARK   97  A    between atoms: _230  and  _231
REMARK   98  A    between atoms: _234  and  _236
REMARK   99  A    between atoms: _236  and  _237
REMARK  100  A    between atoms: _236  and  _239
REMARK  101  A    between atoms: _239  and  _240
REMARK  102  A    between atoms: _242  and  _244
REMARK  103  A    between atoms: _244  and  _245
REMARK  104  A    between atoms: _244  and  _247
REMARK  105  A    between atoms: _249  and  _251
REMARK  106  A    between atoms: _251  and  _252
REMARK  107  A    between atoms: _251  and  _254
REMARK  108  A    between atoms: _254  and  _255
REMARK  109  A    between atoms: _257  and  _259
REMARK  110  A    between atoms: _259  and  _260
REMARK  111  A    between atoms: _259  and  _262
REMARK  112  A    between atoms: _262  and  _263
REMARK  113  A    between atoms: _265  and  _267
REMARK  114  A    between atoms: _267  and  _268
REMARK  115  A    between atoms: _267  and  _270
REMARK  116  A    between atoms: _270  and  _271
REMARK  117  A    between atoms: _276  and  _278
REMARK  118  A    between atoms: _278  and  _279
REMARK  119  A    between atoms: _278  and  _281
REMARK  120  A    between atoms: _281  and  _282
REMARK  121  A    between atoms: _287  and  _288
REMARK  122  A    between atoms: _290  and  _292
REMARK  123  A    between atoms: _292  and  _293
REMARK  124  A    between atoms: _292  and  _295
REMARK  125  A    between atoms: _295  and  _296
REMARK  126  A    between atoms: _299  and  _301
REMARK  127  A    between atoms: _301  and  _302
REMARK  128  A    between atoms: _301  and  _304
REMARK  129  A    between atoms: _304  and  _305
REMARK  130  A    between atoms: _308  and  _310
REMARK  131  A    between atoms: _310  and  _311
REMARK  132  A    between atoms: _310  and  _313
REMARK  133  A    between atoms: _313  and  _314
REMARK  134  A    between atoms: _314  and  _315
REMARK  135  A    between atoms: _315  and  _316
REMARK  136  A    between atoms: _326  and  _327
REMARK  137  A    between atoms: _332  and  _334
REMARK  138  A    between atoms: _334  and  _335
REMARK  139  A    between atoms: _334  and  _337
REMARK  140  A    between atoms: _337  and  _338
REMARK  141  A    between atoms: _338  and  _339
REMARK  142  A    between atoms: _339  and  _340
REMARK  143  A    between atoms: _349  and  _351
REMARK  144  A    between atoms: _351  and  _352
REMARK  145  A    between atoms: _351  and  _354
REMARK  146  A    between atoms: _354  and  _355
REMARK  147  A    between atoms: _355  and  _356
REMARK  148  A    between atoms: _359  and  _361
REMARK  149  A    between atoms: _361  and  _362
REMARK  150  A    between atoms: _361  and  _364
REMARK  151  A    between atoms: _364  and  _365
REMARK  152  A    between atoms: _368  and  _370
REMARK  153  A    between atoms: _370  and  _371
REMARK  154  A    between atoms: _370  and  _373
REMARK  155  A    between atoms: _373  and  _374
REMARK  156  A    between atoms: _379  and  _381
REMARK  157  A    between atoms: _381  and  _382
REMARK  158  A    between atoms: _381  and  _384
REMARK  159  A    between atoms: _384  and  _385
REMARK  160  A    between atoms: _387  and  _389
REMARK  161  A    between atoms: _389  and  _390
REMARK  162  A    between atoms: _389  and  _392
REMARK  163  A    between atoms: _392  and  _393
REMARK  164  A    between atoms: _403  and  _405
REMARK  165  A    between atoms: _405  and  _406
REMARK  166  A    between atoms: _405  and  _408
REMARK  167  A    between atoms: _408  and  _409
REMARK  168  A    between atoms: _412  and  _414
REMARK  169  A    between atoms: _414  and  _415
REMARK  170  A    between atoms: _417  and  _419
REMARK  171  A    between atoms: _419  and  _420
REMARK  172  A    between atoms: _419  and  _422
REMARK  173  A    between atoms: _422  and  _423
REMARK  174  A    between atoms: _428  and  _430
REMARK  175  A    between atoms: _430  and  _431
REMARK  176  A    between atoms: _430  and  _433
REMARK  177  A    between atoms: _433  and  _434
REMARK  178  A    between atoms: _437  and  _439
REMARK  179  A    between atoms: _439  and  _440
REMARK  180  A    between atoms: _439  and  _442
REMARK  181  A    between atoms: _442  and  _443
REMARK  182  A    between atoms: _446  and  _448
REMARK  183  A    between atoms: _448  and  _449
REMARK  184  A    between atoms: _448  and  _451
REMARK  185  A    between atoms: _451  and  _452
REMARK  186  A    between atoms: _452  and  _453
REMARK  187  A    between atoms: _455  and  _457
REMARK  188  A    between atoms: _457  and  _458
REMARK  189  A    between atoms: _457  and  _460
REMARK  190  A    between atoms: _460  and  _461
REMARK  191  A    between atoms: _466  and  _467
REMARK  192  A    between atoms: _469  and  _471
REMARK  193  A    between atoms: _471  and  _472
REMARK  194  A    between atoms: _476  and  _477
REMARK  195  A    between atoms: _482  and  _484
REMARK  196  A    between atoms: _484  and  _485
REMARK  197  A    between atoms: _484  and  _487
REMARK  198  A    between atoms: _487  and  _488
REMARK  199  A    between atoms: _491  and  _493
REMARK  200  A    between atoms: _493  and  _494
REMARK  201  A    between atoms: _493  and  _496
REMARK  202  A    between atoms: _496  and  _497
REMARK  203  A    between atoms: _507  and  _509
REMARK  204  A    between atoms: _509  and  _510
REMARK  205  A    between atoms: _509  and  _512
REMARK  206  A    between atoms: _514  and  _516
REMARK  207  A    between atoms: _516  and  _517
REMARK  208  A    between atoms: _516  and  _519
REMARK  209  A    between atoms: _519  and  _520
REMARK  210  A    between atoms: _520  and  _521
REMARK  211  A    between atoms: _526  and  _528
REMARK  212  A    between atoms: _528  and  _529
REMARK  213  A    between atoms: _528  and  _531
REMARK  214  A    between atoms: _531  and  _532
REMARK  215  A    between atoms: _535  and  _537
REMARK  216  A    between atoms: _537  and  _538
REMARK  217  A    between atoms: _537  and  _540
REMARK  218  A    between atoms: _540  and  _541
REMARK  219  A    between atoms: _546  and  _547
REMARK  220  A    between atoms: _549  and  _551
REMARK  221  A    between atoms: _551  and  _552
REMARK  222  A    between atoms: _554  and  _556
REMARK  223  A    between atoms: _556  and  _557
REMARK  224  A    between atoms: _560  and  _562
REMARK  225  A    between atoms: _562  and  _563
REMARK  226  A    between atoms: _562  and  _565
REMARK  227  A    between atoms: _567  and  _569
REMARK  228  A    between atoms: _569  and  _570
REMARK  229  A    between atoms: _569  and  _572
REMARK  230  A    between atoms: _572  and  _573
REMARK  231  A    between atoms: _578  and  _579
REMARK  232  A    between atoms: _581  and  _583
REMARK  233  A    between atoms: _583  and  _584
REMARK  234  A    between atoms: _583  and  _586
REMARK  235  A    between atoms: _586  and  _587
REMARK  236  A    between atoms: _590  and  _592
REMARK  237  A    between atoms: _592  and  _593
REMARK  238  A    between atoms: _592  and  _595
REMARK  239  A    between atoms: _595  and  _596
REMARK  240  A    between atoms: _601  and  _603
REMARK  241  A    between atoms: _603  and  _604
REMARK  242  A    between atoms: _603  and  _606
REMARK  243  A    between atoms: _606  and  _607
REMARK  244  A    between atoms: _617  and  _619
REMARK  245  A    between atoms: _619  and  _620
REMARK  246  A    between atoms: _619  and  _622
REMARK  247  A    between atoms: _622  and  _623
REMARK  248  A    between atoms: _629  and  _631
REMARK  249  A    between atoms: _631  and  _632
REMARK  250  A    between atoms: _635  and  _637
REMARK  251  A    between atoms: _637  and  _638
REMARK  252  A    between atoms: _640  and  _642
REMARK  253  A    between atoms: _642  and  _643
REMARK  254  A    between atoms: _642  and  _645
REMARK  255  A    between atoms: _645  and  _646
REMARK  256  A    between atoms: _651  and  _652
REMARK  257  A    between atoms: _654  and  _656
REMARK  258  A    between atoms: _656  and  _657
REMARK  259  A    between atoms: _656  and  _659
REMARK  260  A    between atoms: _659  and  _660
REMARK  261  A    between atoms: _662  and  _664
REMARK  262  A    between atoms: _664  and  _665
REMARK                            x       y       z     vdW  Elec       q    Type
REMARK                         _______ _______ _______ _____ _____    ______ ____
ROOT
ATOM      1  O   HOH     1     -25.618   0.658  30.440  0.00  0.00    +0.000 OA
ENDROOT
TORSDOF 0
REMARK  Name = ../refined-set-2016/3hky/3hky_pocket.pdb
REMARK  262 active torsions:
REMARK  status: ('A' for Active; 'I' for Inactive)
REMARK    1  A    between atoms: _1  and  _3
REMARK    2  A    between atoms: _3  and  _4
REMARK    3  A    between atoms: _3  and  _6
REMARK    4  A    between atoms: _6  and  _7
REMARK    5  A    between atoms: _7  and  _8
REMARK    6  A    between atoms: _8  and  _9
REMARK    7  A    between atoms: _9  and  _10
REMARK    8  A    between atoms: _14  and  _16
REMARK    9  A    between atoms: _16  and  _17
REMARK   10  A    between atoms: _16  and  _19
REMARK   11  A    between atoms: _19  and  _20
REMARK   12  A    between atoms: _20  and  _21
REMARK   13  A    between atoms: _24  and  _26
REMARK   14  A    between atoms: _26  and  _27
REMARK   15  A    between atoms: _26  and  _29
REMARK   16  A    between atoms: _29  and  _30
REMARK   17  A    between atoms: _30  and  _31
REMARK   18  A    between atoms: _31  and  _32
REMARK   19  A    between atoms: _41  and  _43
REMARK   20  A    between atoms: _43  and  _44
REMARK   21  A    between atoms: _46  and  _48
REMARK   22  A    between atoms: _48  and  _49
REMARK   23  A    between atoms: _48  and  _51
REMARK   24  A    between atoms: _51  and  _52
REMARK   25  A    between atoms: _58  and  _60
REMARK   26  A    between atoms: _60  and  _61
REMARK   27  A    between atoms: _60  and  _63
REMARK   28  A    between atoms: _63  and  _64
REMARK   29  A    between atoms: _69  and  _70
REMARK   30  A    between atoms: _72  and  _74
REMARK   31  A    between atoms: _74  and  _75
REMARK   32  A    between atoms: _74  and  _77
REMARK   33  A    between atoms: _77  and  _78
REMARK   34  A    between atoms: _81  and  _82
REMARK   35  A    between atoms: _87  and  _89
REMARK   36  A    between atoms: _89  and  _90
REMARK   37  A    between atoms: _89  and  _92
REMARK   38  A    between atoms: _92  and  _93
REMARK   39  A    between atoms: _93  and  _94
REMARK   40  A    between atoms: _94  and  _95
REMARK   41  A    between atoms: _95  and  _96
REMARK   42  A    between atoms: _100  and  _102
REMARK   43  A    between atoms: _102  and  _103
REMARK   44  A    between atoms: _102  and  _105
REMARK   45  A    between atoms: _105  and  _106
REMARK   46  A    between atoms: _106  and  _107
REMARK   47  A    between atoms: _112  and  _114
REMARK   48  A    between atoms: _114  and  _115
REMARK   49  A    between atoms: _114  and  _117
REMARK   50  A    between atoms: _117  and  _118
REMARK   51  A    between atoms: _118  and  _119
REMARK   52  A    between atoms: _119  and  _120
REMARK   53  A    between atoms: _129  and  _131
REMARK   54  A    between atoms: _131  and  _132
REMARK   55  A    between atoms: _131  and  _134
REMARK   56  A    between atoms: _137  and  _139
REMARK   57  A    between atoms: _139  and  _140
REMARK   58  A    between atoms: _139  and  _142
REMARK   59  A    between atoms: _142  and  _143
REMARK   60  A    between atoms: _146  and  _148
REMARK   61  A    between atoms: _148  and  _149
REMARK   62  A    between atoms: _148  and  _151
REMARK   63  A    between atoms: _151  and  _152
REMARK   64  A    between atoms: _155  and  _157
REMARK   65  A    between atoms: _157  and  _158
REMARK   66  A    between atoms: _157  and  _160
REMARK   67  A    between atoms: _160  and  _161
REMARK   68  A    between atoms: _163  and  _165
REMARK   69  A    between atoms: _165  and  _166
REMARK   70  A    between atoms: _165  and  _168
REMARK   71  A    between atoms: _168  and  _169
REMARK   72  A    between atoms: _172  and  _174
REMARK   73  A    between atoms: _174  and  _175
REMARK   74  A    between atoms: _174  and  _177
REMARK   75  A    between atoms: _177  and  _178
REMARK   76  A    between atoms: _180  and  _182
REMARK   77  A    between atoms: _182  and  _183
REMARK   78  A    between atoms: _182  and  _185
REMARK   79  A    between atoms: _185  and  _186
REMARK   80  A    between atoms: _191  and  _193
REMARK   81  A    between atoms: _193  and  _194
REMARK   82  A    between atoms: _193  and  _196
REMARK   83  A    between atoms: _196  and  _197
REMARK   84  A    between atoms: _200  and  _202
REMARK   85  A    between atoms: _202  and  _203
REMARK   86  A    between atoms: _202  and  _205
REMARK   87  A    between atoms: _205  and  _206
REMARK   88  A    between atoms: _211  and  _213
REMARK   89  A    between atoms: _213  and  _214
REMARK   90  A    between atoms: _216  and  _218
REMARK   91  A    between atoms: _218  and  _219
REMARK   92  A    between atoms: _218  and  _221
REMARK   93  A    between atoms: _221  and  _222
REMARK   94  A    between atoms: _225  and  _227
REMARK   95  A    between atoms: _227  and  _228
REMARK   96  A    between atoms: _227  and  _230
REMARK   97  A    between atoms: _230  and  _231
REMARK   98  A    between atoms: _234  and  _236
REMARK   99  A    between atoms: _236  and  _237
REMARK  100  A    between atoms: _236  and  _239
REMARK  101  A    between atoms: _239  and  _240
REMARK  102  A    between atoms: _242  and  _244
REMARK  103  A    between atoms: _244  and  _245
REMARK  104  A    between atoms: _244  and  _247
REMARK  105  A    between atoms: _249  and  _251
REMARK  106  A    between atoms: _251  and  _252
REMARK  107  A    between atoms: _251  and  _254
REMARK  108  A    between atoms: _254  and  _255
REMARK  109  A    between atoms: _257  and  _259
REMARK  110  A    between atoms: _259  and  _260
REMARK  111  A    between atoms: _259  and  _262
REMARK  112  A    between atoms: _262  and  _263
REMARK  113  A    between atoms: _265  and  _267
REMARK  114  A    between atoms: _267  and  _268
REMARK  115  A    between atoms: _267  and  _270
REMARK  116  A    between atoms: _270  and  _271
REMARK  117  A    between atoms: _276  and  _278
REMARK  118  A    between atoms: _278  and  _279
REMARK  119  A    between atoms: _278  and  _281
REMARK  120  A    between atoms: _281  and  _282
REMARK  121  A    between atoms: _287  and  _288
REMARK  122  A    between atoms: _290  and  _292
REMARK  123  A    between atoms: _292  and  _293
REMARK  124  A    between atoms: _292  and  _295
REMARK  125  A    between atoms: _295  and  _296
REMARK  126  A    between atoms: _299  and  _301
REMARK  127  A    between atoms: _301  and  _302
REMARK  128  A    between atoms: _301  and  _304
REMARK  129  A    between atoms: _304  and  _305
REMARK  130  A    between atoms: _308  and  _310
REMARK  131  A    between atoms: _310  and  _311
REMARK  132  A    between atoms: _310  and  _313
REMARK  133  A    between atoms: _313  and  _314
REMARK  134  A    between atoms: _314  and  _315
REMARK  135  A    between atoms: _315  and  _316
REMARK  136  A    between atoms: _326  and  _327
REMARK  137  A    between atoms: _332  and  _334
REMARK  138  A    between atoms: _334  and  _335
REMARK  139  A    between atoms: _334  and  _337
REMARK  140  A    between atoms: _337  and  _338
REMARK  141  A    between atoms: _338  and  _339
REMARK  142  A    between atoms: _339  and  _340
REMARK  143  A    between atoms: _349  and  _351
REMARK  144  A    between atoms: _351  and  _352
REMARK  145  A    between atoms: _351  and  _354
REMARK  146  A    between atoms: _354  and  _355
REMARK  147  A    between atoms: _355  and  _356
REMARK  148  A    between atoms: _359  and  _361
REMARK  149  A    between atoms: _361  and  _362
REMARK  150  A    between atoms: _361  and  _364
REMARK  151  A    between atoms: _364  and  _365
REMARK  152  A    between atoms: _368  and  _370
REMARK  153  A    between atoms: _370  and  _371
REMARK  154  A    between atoms: _370  and  _373
REMARK  155  A    between atoms: _373  and  _374
REMARK  156  A    between atoms: _379  and  _381
REMARK  157  A    between atoms: _381  and  _382
REMARK  158  A    between atoms: _381  and  _384
REMARK  159  A    between atoms: _384  and  _385
REMARK  160  A    between atoms: _387  and  _389
REMARK  161  A    between atoms: _389  and  _390
REMARK  162  A    between atoms: _389  and  _392
REMARK  163  A    between atoms: _392  and  _393
REMARK  164  A    between atoms: _403  and  _405
REMARK  165  A    between atoms: _405  and  _406
REMARK  166  A    between atoms: _405  and  _408
REMARK  167  A    between atoms: _408  and  _409
REMARK  168  A    between atoms: _412  and  _414
REMARK  169  A    between atoms: _414  and  _415
REMARK  170  A    between atoms: _417  and  _419
REMARK  171  A    between atoms: _419  and  _420
REMARK  172  A    between atoms: _419  and  _422
REMARK  173  A    between atoms: _422  and  _423
REMARK  174  A    between atoms: _428  and  _430
REMARK  175  A    between atoms: _430  and  _431
REMARK  176  A    between atoms: _430  and  _433
REMARK  177  A    between atoms: _433  and  _434
REMARK  178  A    between atoms: _437  and  _439
REMARK  179  A    between atoms: _439  and  _440
REMARK  180  A    between atoms: _439  and  _442
REMARK  181  A    between atoms: _442  and  _443
REMARK  182  A    between atoms: _446  and  _448
REMARK  183  A    between atoms: _448  and  _449
REMARK  184  A    between atoms: _448  and  _451
REMARK  185  A    between atoms: _451  and  _452
REMARK  186  A    between atoms: _452  and  _453
REMARK  187  A    between atoms: _455  and  _457
REMARK  188  A    between atoms: _457  and  _458
REMARK  189  A    between atoms: _457  and  _460
REMARK  190  A    between atoms: _460  and  _461
REMARK  191  A    between atoms: _466  and  _467
REMARK  192  A    between atoms: _469  and  _471
REMARK  193  A    between atoms: _471  and  _472
REMARK  194  A    between atoms: _476  and  _477
REMARK  195  A    between atoms: _482  and  _484
REMARK  196  A    between atoms: _484  and  _485
REMARK  197  A    between atoms: _484  and  _487
REMARK  198  A    between atoms: _487  and  _488
REMARK  199  A    between atoms: _491  and  _493
REMARK  200  A    between atoms: _493  and  _494
REMARK  201  A    between atoms: _493  and  _496
REMARK  202  A    between atoms: _496  and  _497
REMARK  203  A    between atoms: _507  and  _509
REMARK  204  A    between atoms: _509  and  _510
REMARK  205  A    between atoms: _509  and  _512
REMARK  206  A    between atoms: _514  and  _516
REMARK  207  A    between atoms: _516  and  _517
REMARK  208  A    between atoms: _516  and  _519
REMARK  209  A    between atoms: _519  and  _520
REMARK  210  A    between atoms: _520  and  _521
REMARK  211  A    between atoms: _526  and  _528
REMARK  212  A    between atoms: _528  and  _529
REMARK  213  A    between atoms: _528  and  _531
REMARK  214  A    between atoms: _531  and  _532
REMARK  215  A    between atoms: _535  and  _537
REMARK  216  A    between atoms: _537  and  _538
REMARK  217  A    between atoms: _537  and  _540
REMARK  218  A    between atoms: _540  and  _541
REMARK  219  A    between atoms: _546  and  _547
REMARK  220  A    between atoms: _549  and  _551
REMARK  221  A    between atoms: _551  and  _552
REMARK  222  A    between atoms: _554  and  _556
REMARK  223  A    between atoms: _556  and  _557
REMARK  224  A    between atoms: _560  and  _562
REMARK  225  A    between atoms: _562  and  _563
REMARK  226  A    between atoms: _562  and  _565
REMARK  227  A    between atoms: _567  and  _569
REMARK  228  A    between atoms: _569  and  _570
REMARK  229  A    between atoms: _569  and  _572
REMARK  230  A    between atoms: _572  and  _573
REMARK  231  A    between atoms: _578  and  _579
REMARK  232  A    between atoms: _581  and  _583
REMARK  233  A    between atoms: _583  and  _584
REMARK  234  A    between atoms: _583  and  _586
REMARK  235  A    between atoms: _586  and  _587
REMARK  236  A    between atoms: _590  and  _592
REMARK  237  A    between atoms: _592  and  _593
REMARK  238  A    between atoms: _592  and  _595
REMARK  239  A    between atoms: _595  and  _596
REMARK  240  A    between atoms: _601  and  _603
REMARK  241  A    between atoms: _603  and  _604
REMARK  242  A    between atoms: _603  and  _606
REMARK  243  A    between atoms: _606  and  _607
REMARK  244  A    between atoms: _617  and  _619
REMARK  245  A    between atoms: _619  and  _620
REMARK  246  A    between atoms: _619  and  _622
REMARK  247  A    between atoms: _622  and  _623
REMARK  248  A    between atoms: _629  and  _631
REMARK  249  A    between atoms: _631  and  _632
REMARK  250  A    between atoms: _635  and  _637
REMARK  251  A    between atoms: _637  and  _638
REMARK  252  A    between atoms: _640  and  _642
REMARK  253  A    between atoms: _642  and  _643
REMARK  254  A    between atoms: _642  and  _645
REMARK  255  A    between atoms: _645  and  _646
REMARK  256  A    between atoms: _651  and  _652
REMARK  257  A    between atoms: _654  and  _656
REMARK  258  A    between atoms: _656  and  _657
REMARK  259  A    between atoms: _656  and  _659
REMARK  260  A    between atoms: _659  and  _660
REMARK  261  A    between atoms: _662  and  _664
REMARK  262  A    between atoms: _664  and  _665
REMARK                            x       y       z     vdW  Elec       q    Type
REMARK                         _______ _______ _______ _____ _____    ______ ____
ROOT
ATOM      1  O   HOH     1     -23.594  -4.359  20.671  0.00  0.00    +0.000 OA
ENDROOT
TORSDOF 0
REMARK  Name = ../refined-set-2016/3hky/3hky_pocket.pdb
REMARK  262 active torsions:
REMARK  status: ('A' for Active; 'I' for Inactive)
REMARK    1  A    between atoms: _1  and  _3
REMARK    2  A    between atoms: _3  and  _4
REMARK    3  A    between atoms: _3  and  _6
REMARK    4  A    between atoms: _6  and  _7
REMARK    5  A    between atoms: _7  and  _8
REMARK    6  A    between atoms: _8  and  _9
REMARK    7  A    between atoms: _9  and  _10
REMARK    8  A    between atoms: _14  and  _16
REMARK    9  A    between atoms: _16  and  _17
REMARK   10  A    between atoms: _16  and  _19
REMARK   11  A    between atoms: _19  and  _20
REMARK   12  A    between atoms: _20  and  _21
REMARK   13  A    between atoms: _24  and  _26
REMARK   14  A    between atoms: _26  and  _27
REMARK   15  A    between atoms: _26  and  _29
REMARK   16  A    between atoms: _29  and  _30
REMARK   17  A    between atoms: _30  and  _31
REMARK   18  A    between atoms: _31  and  _32
REMARK   19  A    between atoms: _41  and  _43
REMARK   20  A    between atoms: _43  and  _44
REMARK   21  A    between atoms: _46  and  _48
REMARK   22  A    between atoms: _48  and  _49
REMARK   23  A    between atoms: _48  and  _51
REMARK   24  A    between atoms: _51  and  _52
REMARK   25  A    between atoms: _58  and  _60
REMARK   26  A    between atoms: _60  and  _61
REMARK   27  A    between atoms: _60  and  _63
REMARK   28  A    between atoms: _63  and  _64
REMARK   29  A    between atoms: _69  and  _70
REMARK   30  A    between atoms: _72  and  _74
REMARK   31  A    between atoms: _74  and  _75
REMARK   32  A    between atoms: _74  and  _77
REMARK   33  A    between atoms: _77  and  _78
REMARK   34  A    between atoms: _81  and  _82
REMARK   35  A    between atoms: _87  and  _89
REMARK   36  A    between atoms: _89  and  _90
REMARK   37  A    between atoms: _89  and  _92
REMARK   38  A    between atoms: _92  and  _93
REMARK   39  A    between atoms: _93  and  _94
REMARK   40  A    between atoms: _94  and  _95
REMARK   41  A    between atoms: _95  and  _96
REMARK   42  A    between atoms: _100  and  _102
REMARK   43  A    between atoms: _102  and  _103
REMARK   44  A    between atoms: _102  and  _105
REMARK   45  A    between atoms: _105  and  _106
REMARK   46  A    between atoms: _106  and  _107
REMARK   47  A    between atoms: _112  and  _114
REMARK   48  A    between atoms: _114  and  _115
REMARK   49  A    between atoms: _114  and  _117
REMARK   50  A    between atoms: _117  and  _118
REMARK   51  A    between atoms: _118  and  _119
REMARK   52  A    between atoms: _119  and  _120
REMARK   53  A    between atoms: _129  and  _131
REMARK   54  A    between atoms: _131  and  _132
REMARK   55  A    between atoms: _131  and  _134
REMARK   56  A    between atoms: _137  and  _139
REMARK   57  A    between atoms: _139  and  _140
REMARK   58  A    between atoms: _139  and  _142
REMARK   59  A    between atoms: _142  and  _143
REMARK   60  A    between atoms: _146  and  _148
REMARK   61  A    between atoms: _148  and  _149
REMARK   62  A    between atoms: _148  and  _151
REMARK   63  A    between atoms: _151  and  _152
REMARK   64  A    between atoms: _155  and  _157
REMARK   65  A    between atoms: _157  and  _158
REMARK   66  A    between atoms: _157  and  _160
REMARK   67  A    between atoms: _160  and  _161
REMARK   68  A    between atoms: _163  and  _165
REMARK   69  A    between atoms: _165  and  _166
REMARK   70  A    between atoms: _165  and  _168
REMARK   71  A    between atoms: _168  and  _169
REMARK   72  A    between atoms: _172  and  _174
REMARK   73  A    between atoms: _174  and  _175
REMARK   74  A    between atoms: _174  and  _177
REMARK   75  A    between atoms: _177  and  _178
REMARK   76  A    between atoms: _180  and  _182
REMARK   77  A    between atoms: _182  and  _183
REMARK   78  A    between atoms: _182  and  _185
REMARK   79  A    between atoms: _185  and  _186
REMARK   80  A    between atoms: _191  and  _193
REMARK   81  A    between atoms: _193  and  _194
REMARK   82  A    between atoms: _193  and  _196
REMARK   83  A    between atoms: _196  and  _197
REMARK   84  A    between atoms: _200  and  _202
REMARK   85  A    between atoms: _202  and  _203
REMARK   86  A    between atoms: _202  and  _205
REMARK   87  A    between atoms: _205  and  _206
REMARK   88  A    between atoms: _211  and  _213
REMARK   89  A    between atoms: _213  and  _214
REMARK   90  A    between atoms: _216  and  _218
REMARK   91  A    between atoms: _218  and  _219
REMARK   92  A    between atoms: _218  and  _221
REMARK   93  A    between atoms: _221  and  _222
REMARK   94  A    between atoms: _225  and  _227
REMARK   95  A    between atoms: _227  and  _228
REMARK   96  A    between atoms: _227  and  _230
REMARK   97  A    between atoms: _230  and  _231
REMARK   98  A    between atoms: _234  and  _236
REMARK   99  A    between atoms: _236  and  _237
REMARK  100  A    between atoms: _236  and  _239
REMARK  101  A    between atoms: _239  and  _240
REMARK  102  A    between atoms: _242  and  _244
REMARK  103  A    between atoms: _244  and  _245
REMARK  104  A    between atoms: _244  and  _247
REMARK  105  A    between atoms: _249  and  _251
REMARK  106  A    between atoms: _251  and  _252
REMARK  107  A    between atoms: _251  and  _254
REMARK  108  A    between atoms: _254  and  _255
REMARK  109  A    between atoms: _257  and  _259
REMARK  110  A    between atoms: _259  and  _260
REMARK  111  A    between atoms: _259  and  _262
REMARK  112  A    between atoms: _262  and  _263
REMARK  113  A    between atoms: _265  and  _267
REMARK  114  A    between atoms: _267  and  _268
REMARK  115  A    between atoms: _267  and  _270
REMARK  116  A    between atoms: _270  and  _271
REMARK  117  A    between atoms: _276  and  _278
REMARK  118  A    between atoms: _278  and  _279
REMARK  119  A    between atoms: _278  and  _281
REMARK  120  A    between atoms: _281  and  _282
REMARK  121  A    between atoms: _287  and  _288
REMARK  122  A    between atoms: _290  and  _292
REMARK  123  A    between atoms: _292  and  _293
REMARK  124  A    between atoms: _292  and  _295
REMARK  125  A    between atoms: _295  and  _296
REMARK  126  A    between atoms: _299  and  _301
REMARK  127  A    between atoms: _301  and  _302
REMARK  128  A    between atoms: _301  and  _304
REMARK  129  A    between atoms: _304  and  _305
REMARK  130  A    between atoms: _308  and  _310
REMARK  131  A    between atoms: _310  and  _311
REMARK  132  A    between atoms: _310  and  _313
REMARK  133  A    between atoms: _313  and  _314
REMARK  134  A    between atoms: _314  and  _315
REMARK  135  A    between atoms: _315  and  _316
REMARK  136  A    between atoms: _326  and  _327
REMARK  137  A    between atoms: _332  and  _334
REMARK  138  A    between atoms: _334  and  _335
REMARK  139  A    between atoms: _334  and  _337
REMARK  140  A    between atoms: _337  and  _338
REMARK  141  A    between atoms: _338  and  _339
REMARK  142  A    between atoms: _339  and  _340
REMARK  143  A    between atoms: _349  and  _351
REMARK  144  A    between atoms: _351  and  _352
REMARK  145  A    between atoms: _351  and  _354
REMARK  146  A    between atoms: _354  and  _355
REMARK  147  A    between atoms: _355  and  _356
REMARK  148  A    between atoms: _359  and  _361
REMARK  149  A    between atoms: _361  and  _362
REMARK  150  A    between atoms: _361  and  _364
REMARK  151  A    between atoms: _364  and  _365
REMARK  152  A    between atoms: _368  and  _370
REMARK  153  A    between atoms: _370  and  _371
REMARK  154  A    between atoms: _370  and  _373
REMARK  155  A    between atoms: _373  and  _374
REMARK  156  A    between atoms: _379  and  _381
REMARK  157  A    between atoms: _381  and  _382
REMARK  158  A    between atoms: _381  and  _384
REMARK  159  A    between atoms: _384  and  _385
REMARK  160  A    between atoms: _387  and  _389
REMARK  161  A    between atoms: _389  and  _390
REMARK  162  A    between atoms: _389  and  _392
REMARK  163  A    between atoms: _392  and  _393
REMARK  164  A    between atoms: _403  and  _405
REMARK  165  A    between atoms: _405  and  _406
REMARK  166  A    between atoms: _405  and  _408
REMARK  167  A    between atoms: _408  and  _409
REMARK  168  A    between atoms: _412  and  _414
REMARK  169  A    between atoms: _414  and  _415
REMARK  170  A    between atoms: _417  and  _419
REMARK  171  A    between atoms: _419  and  _420
REMARK  172  A    between atoms: _419  and  _422
REMARK  173  A    between atoms: _422  and  _423
REMARK  174  A    between atoms: _428  and  _430
REMARK  175  A    between atoms: _430  and  _431
REMARK  176  A    between atoms: _430  and  _433
REMARK  177  A    between atoms: _433  and  _434
REMARK  178  A    between atoms: _437  and  _439
REMARK  179  A    between atoms: _439  and  _440
REMARK  180  A    between atoms: _439  and  _442
REMARK  181  A    between atoms: _442  and  _443
REMARK  182  A    between atoms: _446  and  _448
REMARK  183  A    between atoms: _448  and  _449
REMARK  184  A    between atoms: _448  and  _451
REMARK  185  A    between atoms: _451  and  _452
REMARK  186  A    between atoms: _452  and  _453
REMARK  187  A    between atoms: _455  and  _457
REMARK  188  A    between atoms: _457  and  _458
REMARK  189  A    between atoms: _457  and  _460
REMARK  190  A    between atoms: _460  and  _461
REMARK  191  A    between atoms: _466  and  _467
REMARK  192  A    between atoms: _469  and  _471
REMARK  193  A    between atoms: _471  and  _472
REMARK  194  A    between atoms: _476  and  _477
REMARK  195  A    between atoms: _482  and  _484
REMARK  196  A    between atoms: _484  and  _485
REMARK  197  A    between atoms: _484  and  _487
REMARK  198  A    between atoms: _487  and  _488
REMARK  199  A    between atoms: _491  and  _493
REMARK  200  A    between atoms: _493  and  _494
REMARK  201  A    between atoms: _493  and  _496
REMARK  202  A    between atoms: _496  and  _497
REMARK  203  A    between atoms: _507  and  _509
REMARK  204  A    between atoms: _509  and  _510
REMARK  205  A    between atoms: _509  and  _512
REMARK  206  A    between atoms: _514  and  _516
REMARK  207  A    between atoms: _516  and  _517
REMARK  208  A    between atoms: _516  and  _519
REMARK  209  A    between atoms: _519  and  _520
REMARK  210  A    between atoms: _520  and  _521
REMARK  211  A    between atoms: _526  and  _528
REMARK  212  A    between atoms: _528  and  _529
REMARK  213  A    between atoms: _528  and  _531
REMARK  214  A    between atoms: _531  and  _532
REMARK  215  A    between atoms: _535  and  _537
REMARK  216  A    between atoms: _537  and  _538
REMARK  217  A    between atoms: _537  and  _540
REMARK  218  A    between atoms: _540  and  _541
REMARK  219  A    between atoms: _546  and  _547
REMARK  220  A    between atoms: _549  and  _551
REMARK  221  A    between atoms: _551  and  _552
REMARK  222  A    between atoms: _554  and  _556
REMARK  223  A    between atoms: _556  and  _557
REMARK  224  A    between atoms: _560  and  _562
REMARK  225  A    between atoms: _562  and  _563
REMARK  226  A    between atoms: _562  and  _565
REMARK  227  A    between atoms: _567  and  _569
REMARK  228  A    between atoms: _569  and  _570
REMARK  229  A    between atoms: _569  and  _572
REMARK  230  A    between atoms: _572  and  _573
REMARK  231  A    between atoms: _578  and  _579
REMARK  232  A    between atoms: _581  and  _583
REMARK  233  A    between atoms: _583  and  _584
REMARK  234  A    between atoms: _583  and  _586
REMARK  235  A    between atoms: _586  and  _587
REMARK  236  A    between atoms: _590  and  _592
REMARK  237  A    between atoms: _592  and  _593
REMARK  238  A    between atoms: _592  and  _595
REMARK  239  A    between atoms: _595  and  _596
REMARK  240  A    between atoms: _601  and  _603
REMARK  241  A    between atoms: _603  and  _604
REMARK  242  A    between atoms: _603  and  _606
REMARK  243  A    between atoms: _606  and  _607
REMARK  244  A    between atoms: _617  and  _619
REMARK  245  A    between atoms: _619  and  _620
REMARK  246  A    between atoms: _619  and  _622
REMARK  247  A    between atoms: _622  and  _623
REMARK  248  A    between atoms: _629  and  _631
REMARK  249  A    between atoms: _631  and  _632
REMARK  250  A    between atoms: _635  and  _637
REMARK  251  A    between atoms: _637  and  _638
REMARK  252  A    between atoms: _640  and  _642
REMARK  253  A    between atoms: _642  and  _643
REMARK  254  A    between atoms: _642  and  _645
REMARK  255  A    between atoms: _645  and  _646
REMARK  256  A    between atoms: _651  and  _652
REMARK  257  A    between atoms: _654  and  _656
REMARK  258  A    between atoms: _656  and  _657
REMARK  259  A    between atoms: _656  and  _659
REMARK  260  A    between atoms: _659  and  _660
REMARK  261  A    between atoms: _662  and  _664
REMARK  262  A    between atoms: _664  and  _665
REMARK                            x       y       z     vdW  Elec       q    Type
REMARK                         _______ _______ _______ _____ _____    ______ ____
ROOT
ATOM      1  O   HOH     1     -28.926  -3.954  21.463  0.00  0.00    +0.000 OA
ENDROOT
TORSDOF 0
REMARK  Name = ../refined-set-2016/3hky/3hky_pocket.pdb
REMARK  262 active torsions:
REMARK  status: ('A' for Active; 'I' for Inactive)
REMARK    1  A    between atoms: _1  and  _3
REMARK    2  A    between atoms: _3  and  _4
REMARK    3  A    between atoms: _3  and  _6
REMARK    4  A    between atoms: _6  and  _7
REMARK    5  A    between atoms: _7  and  _8
REMARK    6  A    between atoms: _8  and  _9
REMARK    7  A    between atoms: _9  and  _10
REMARK    8  A    between atoms: _14  and  _16
REMARK    9  A    between atoms: _16  and  _17
REMARK   10  A    between atoms: _16  and  _19
REMARK   11  A    between atoms: _19  and  _20
REMARK   12  A    between atoms: _20  and  _21
REMARK   13  A    between atoms: _24  and  _26
REMARK   14  A    between atoms: _26  and  _27
REMARK   15  A    between atoms: _26  and  _29
REMARK   16  A    between atoms: _29  and  _30
REMARK   17  A    between atoms: _30  and  _31
REMARK   18  A    between atoms: _31  and  _32
REMARK   19  A    between atoms: _41  and  _43
REMARK   20  A    between atoms: _43  and  _44
REMARK   21  A    between atoms: _46  and  _48
REMARK   22  A    between atoms: _48  and  _49
REMARK   23  A    between atoms: _48  and  _51
REMARK   24  A    between atoms: _51  and  _52
REMARK   25  A    between atoms: _58  and  _60
REMARK   26  A    between atoms: _60  and  _61
REMARK   27  A    between atoms: _60  and  _63
REMARK   28  A    between atoms: _63  and  _64
REMARK   29  A    between atoms: _69  and  _70
REMARK   30  A    between atoms: _72  and  _74
REMARK   31  A    between atoms: _74  and  _75
REMARK   32  A    between atoms: _74  and  _77
REMARK   33  A    between atoms: _77  and  _78
REMARK   34  A    between atoms: _81  and  _82
REMARK   35  A    between atoms: _87  and  _89
REMARK   36  A    between atoms: _89  and  _90
REMARK   37  A    between atoms: _89  and  _92
REMARK   38  A    between atoms: _92  and  _93
REMARK   39  A    between atoms: _93  and  _94
REMARK   40  A    between atoms: _94  and  _95
REMARK   41  A    between atoms: _95  and  _96
REMARK   42  A    between atoms: _100  and  _102
REMARK   43  A    between atoms: _102  and  _103
REMARK   44  A    between atoms: _102  and  _105
REMARK   45  A    between atoms: _105  and  _106
REMARK   46  A    between atoms: _106  and  _107
REMARK   47  A    between atoms: _112  and  _114
REMARK   48  A    between atoms: _114  and  _115
REMARK   49  A    between atoms: _114  and  _117
REMARK   50  A    between atoms: _117  and  _118
REMARK   51  A    between atoms: _118  and  _119
REMARK   52  A    between atoms: _119  and  _120
REMARK   53  A    between atoms: _129  and  _131
REMARK   54  A    between atoms: _131  and  _132
REMARK   55  A    between atoms: _131  and  _134
REMARK   56  A    between atoms: _137  and  _139
REMARK   57  A    between atoms: _139  and  _140
REMARK   58  A    between atoms: _139  and  _142
REMARK   59  A    between atoms: _142  and  _143
REMARK   60  A    between atoms: _146  and  _148
REMARK   61  A    between atoms: _148  and  _149
REMARK   62  A    between atoms: _148  and  _151
REMARK   63  A    between atoms: _151  and  _152
REMARK   64  A    between atoms: _155  and  _157
REMARK   65  A    between atoms: _157  and  _158
REMARK   66  A    between atoms: _157  and  _160
REMARK   67  A    between atoms: _160  and  _161
REMARK   68  A    between atoms: _163  and  _165
REMARK   69  A    between atoms: _165  and  _166
REMARK   70  A    between atoms: _165  and  _168
REMARK   71  A    between atoms: _168  and  _169
REMARK   72  A    between atoms: _172  and  _174
REMARK   73  A    between atoms: _174  and  _175
REMARK   74  A    between atoms: _174  and  _177
REMARK   75  A    between atoms: _177  and  _178
REMARK   76  A    between atoms: _180  and  _182
REMARK   77  A    between atoms: _182  and  _183
REMARK   78  A    between atoms: _182  and  _185
REMARK   79  A    between atoms: _185  and  _186
REMARK   80  A    between atoms: _191  and  _193
REMARK   81  A    between atoms: _193  and  _194
REMARK   82  A    between atoms: _193  and  _196
REMARK   83  A    between atoms: _196  and  _197
REMARK   84  A    between atoms: _200  and  _202
REMARK   85  A    between atoms: _202  and  _203
REMARK   86  A    between atoms: _202  and  _205
REMARK   87  A    between atoms: _205  and  _206
REMARK   88  A    between atoms: _211  and  _213
REMARK   89  A    between atoms: _213  and  _214
REMARK   90  A    between atoms: _216  and  _218
REMARK   91  A    between atoms: _218  and  _219
REMARK   92  A    between atoms: _218  and  _221
REMARK   93  A    between atoms: _221  and  _222
REMARK   94  A    between atoms: _225  and  _227
REMARK   95  A    between atoms: _227  and  _228
REMARK   96  A    between atoms: _227  and  _230
REMARK   97  A    between atoms: _230  and  _231
REMARK   98  A    between atoms: _234  and  _236
REMARK   99  A    between atoms: _236  and  _237
REMARK  100  A    between atoms: _236  and  _239
REMARK  101  A    between atoms: _239  and  _240
REMARK  102  A    between atoms: _242  and  _244
REMARK  103  A    between atoms: _244  and  _245
REMARK  104  A    between atoms: _244  and  _247
REMARK  105  A    between atoms: _249  and  _251
REMARK  106  A    between atoms: _251  and  _252
REMARK  107  A    between atoms: _251  and  _254
REMARK  108  A    between atoms: _254  and  _255
REMARK  109  A    between atoms: _257  and  _259
REMARK  110  A    between atoms: _259  and  _260
REMARK  111  A    between atoms: _259  and  _262
REMARK  112  A    between atoms: _262  and  _263
REMARK  113  A    between atoms: _265  and  _267
REMARK  114  A    between atoms: _267  and  _268
REMARK  115  A    between atoms: _267  and  _270
REMARK  116  A    between atoms: _270  and  _271
REMARK  117  A    between atoms: _276  and  _278
REMARK  118  A    between atoms: _278  and  _279
REMARK  119  A    between atoms: _278  and  _281
REMARK  120  A    between atoms: _281  and  _282
REMARK  121  A    between atoms: _287  and  _288
REMARK  122  A    between atoms: _290  and  _292
REMARK  123  A    between atoms: _292  and  _293
REMARK  124  A    between atoms: _292  and  _295
REMARK  125  A    between atoms: _295  and  _296
REMARK  126  A    between atoms: _299  and  _301
REMARK  127  A    between atoms: _301  and  _302
REMARK  128  A    between atoms: _301  and  _304
REMARK  129  A    between atoms: _304  and  _305
REMARK  130  A    between atoms: _308  and  _310
REMARK  131  A    between atoms: _310  and  _311
REMARK  132  A    between atoms: _310  and  _313
REMARK  133  A    between atoms: _313  and  _314
REMARK  134  A    between atoms: _314  and  _315
REMARK  135  A    between atoms: _315  and  _316
REMARK  136  A    between atoms: _326  and  _327
REMARK  137  A    between atoms: _332  and  _334
REMARK  138  A    between atoms: _334  and  _335
REMARK  139  A    between atoms: _334  and  _337
REMARK  140  A    between atoms: _337  and  _338
REMARK  141  A    between atoms: _338  and  _339
REMARK  142  A    between atoms: _339  and  _340
REMARK  143  A    between atoms: _349  and  _351
REMARK  144  A    between atoms: _351  and  _352
REMARK  145  A    between atoms: _351  and  _354
REMARK  146  A    between atoms: _354  and  _355
REMARK  147  A    between atoms: _355  and  _356
REMARK  148  A    between atoms: _359  and  _361
REMARK  149  A    between atoms: _361  and  _362
REMARK  150  A    between atoms: _361  and  _364
REMARK  151  A    between atoms: _364  and  _365
REMARK  152  A    between atoms: _368  and  _370
REMARK  153  A    between atoms: _370  and  _371
REMARK  154  A    between atoms: _370  and  _373
REMARK  155  A    between atoms: _373  and  _374
REMARK  156  A    between atoms: _379  and  _381
REMARK  157  A    between atoms: _381  and  _382
REMARK  158  A    between atoms: _381  and  _384
REMARK  159  A    between atoms: _384  and  _385
REMARK  160  A    between atoms: _387  and  _389
REMARK  161  A    between atoms: _389  and  _390
REMARK  162  A    between atoms: _389  and  _392
REMARK  163  A    between atoms: _392  and  _393
REMARK  164  A    between atoms: _403  and  _405
REMARK  165  A    between atoms: _405  and  _406
REMARK  166  A    between atoms: _405  and  _408
REMARK  167  A    between atoms: _408  and  _409
REMARK  168  A    between atoms: _412  and  _414
REMARK  169  A    between atoms: _414  and  _415
REMARK  170  A    between atoms: _417  and  _419
REMARK  171  A    between atoms: _419  and  _420
REMARK  172  A    between atoms: _419  and  _422
REMARK  173  A    between atoms: _422  and  _423
REMARK  174  A    between atoms: _428  and  _430
REMARK  175  A    between atoms: _430  and  _431
REMARK  176  A    between atoms: _430  and  _433
REMARK  177  A    between atoms: _433  and  _434
REMARK  178  A    between atoms: _437  and  _439
REMARK  179  A    between atoms: _439  and  _440
REMARK  180  A    between atoms: _439  and  _442
REMARK  181  A    between atoms: _442  and  _443
REMARK  182  A    between atoms: _446  and  _448
REMARK  183  A    between atoms: _448  and  _449
REMARK  184  A    between atoms: _448  and  _451
REMARK  185  A    between atoms: _451  and  _452
REMARK  186  A    between atoms: _452  and  _453
REMARK  187  A    between atoms: _455  and  _457
REMARK  188  A    between atoms: _457  and  _458
REMARK  189  A    between atoms: _457  and  _460
REMARK  190  A    between atoms: _460  and  _461
REMARK  191  A    between atoms: _466  and  _467
REMARK  192  A    between atoms: _469  and  _471
REMARK  193  A    between atoms: _471  and  _472
REMARK  194  A    between atoms: _476  and  _477
REMARK  195  A    between atoms: _482  and  _484
REMARK  196  A    between atoms: _484  and  _485
REMARK  197  A    between atoms: _484  and  _487
REMARK  198  A    between atoms: _487  and  _488
REMARK  199  A    between atoms: _491  and  _493
REMARK  200  A    between atoms: _493  and  _494
REMARK  201  A    between atoms: _493  and  _496
REMARK  202  A    between atoms: _496  and  _497
REMARK  203  A    between atoms: _507  and  _509
REMARK  204  A    between atoms: _509  and  _510
REMARK  205  A    between atoms: _509  and  _512
REMARK  206  A    between atoms: _514  and  _516
REMARK  207  A    between atoms: _516  and  _517
REMARK  208  A    between atoms: _516  and  _519
REMARK  209  A    between atoms: _519  and  _520
REMARK  210  A    between atoms: _520  and  _521
REMARK  211  A    between atoms: _526  and  _528
REMARK  212  A    between atoms: _528  and  _529
REMARK  213  A    between atoms: _528  and  _531
REMARK  214  A    between atoms: _531  and  _532
REMARK  215  A    between atoms: _535  and  _537
REMARK  216  A    between atoms: _537  and  _538
REMARK  217  A    between atoms: _537  and  _540
REMARK  218  A    between atoms: _540  and  _541
REMARK  219  A    between atoms: _546  and  _547
REMARK  220  A    between atoms: _549  and  _551
REMARK  221  A    between atoms: _551  and  _552
REMARK  222  A    between atoms: _554  and  _556
REMARK  223  A    between atoms: _556  and  _557
REMARK  224  A    between atoms: _560  and  _562
REMARK  225  A    between atoms: _562  and  _563
REMARK  226  A    between atoms: _562  and  _565
REMARK  227  A    between atoms: _567  and  _569
REMARK  228  A    between atoms: _569  and  _570
REMARK  229  A    between atoms: _569  and  _572
REMARK  230  A    between atoms: _572  and  _573
REMARK  231  A    between atoms: _578  and  _579
REMARK  232  A    between atoms: _581  and  _583
REMARK  233  A    between atoms: _583  and  _584
REMARK  234  A    between atoms: _583  and  _586
REMARK  235  A    between atoms: _586  and  _587
REMARK  236  A    between atoms: _590  and  _592
REMARK  237  A    between atoms: _592  and  _593
REMARK  238  A    between atoms: _592  and  _595
REMARK  239  A    between atoms: _595  and  _596
REMARK  240  A    between atoms: _601  and  _603
REMARK  241  A    between atoms: _603  and  _604
REMARK  242  A    between atoms: _603  and  _606
REMARK  243  A    between atoms: _606  and  _607
REMARK  244  A    between atoms: _617  and  _619
REMARK  245  A    between atoms: _619  and  _620
REMARK  246  A    between atoms: _619  and  _622
REMARK  247  A    between atoms: _622  and  _623
REMARK  248  A    between atoms: _629  and  _631
REMARK  249  A    between atoms: _631  and  _632
REMARK  250  A    between atoms: _635  and  _637
REMARK  251  A    between atoms: _637  and  _638
REMARK  252  A    between atoms: _640  and  _642
REMARK  253  A    between atoms: _642  and  _643
REMARK  254  A    between atoms: _642  and  _645
REMARK  255  A    between atoms: _645  and  _646
REMARK  256  A    between atoms: _651  and  _652
REMARK  257  A    between atoms: _654  and  _656
REMARK  258  A    between atoms: _656  and  _657
REMARK  259  A    between atoms: _656  and  _659
REMARK  260  A    between atoms: _659  and  _660
REMARK  261  A    between atoms: _662  and  _664
REMARK  262  A    between atoms: _664  and  _665
REMARK                            x       y       z     vdW  Elec       q    Type
REMARK                         _______ _______ _______ _____ _____    ______ ____
ROOT
ATOM      1  O   HOH     1     -23.917 -10.671  22.801  0.00  0.00    +0.000 OA
ENDROOT
TORSDOF 0
REMARK  Name = ../refined-set-2016/3hky/3hky_pocket.pdb
REMARK  262 active torsions:
REMARK  status: ('A' for Active; 'I' for Inactive)
REMARK    1  A    between atoms: _1  and  _3
REMARK    2  A    between atoms: _3  and  _4
REMARK    3  A    between atoms: _3  and  _6
REMARK    4  A    between atoms: _6  and  _7
REMARK    5  A    between atoms: _7  and  _8
REMARK    6  A    between atoms: _8  and  _9
REMARK    7  A    between atoms: _9  and  _10
REMARK    8  A    between atoms: _14  and  _16
REMARK    9  A    between atoms: _16  and  _17
REMARK   10  A    between atoms: _16  and  _19
REMARK   11  A    between atoms: _19  and  _20
REMARK   12  A    between atoms: _20  and  _21
REMARK   13  A    between atoms: _24  and  _26
REMARK   14  A    between atoms: _26  and  _27
REMARK   15  A    between atoms: _26  and  _29
REMARK   16  A    between atoms: _29  and  _30
REMARK   17  A    between atoms: _30  and  _31
REMARK   18  A    between atoms: _31  and  _32
REMARK   19  A    between atoms: _41  and  _43
REMARK   20  A    between atoms: _43  and  _44
REMARK   21  A    between atoms: _46  and  _48
REMARK   22  A    between atoms: _48  and  _49
REMARK   23  A    between atoms: _48  and  _51
REMARK   24  A    between atoms: _51  and  _52
REMARK   25  A    between atoms: _58  and  _60
REMARK   26  A    between atoms: _60  and  _61
REMARK   27  A    between atoms: _60  and  _63
REMARK   28  A    between atoms: _63  and  _64
REMARK   29  A    between atoms: _69  and  _70
REMARK   30  A    between atoms: _72  and  _74
REMARK   31  A    between atoms: _74  and  _75
REMARK   32  A    between atoms: _74  and  _77
REMARK   33  A    between atoms: _77  and  _78
REMARK   34  A    between atoms: _81  and  _82
REMARK   35  A    between atoms: _87  and  _89
REMARK   36  A    between atoms: _89  and  _90
REMARK   37  A    between atoms: _89  and  _92
REMARK   38  A    between atoms: _92  and  _93
REMARK   39  A    between atoms: _93  and  _94
REMARK   40  A    between atoms: _94  and  _95
REMARK   41  A    between atoms: _95  and  _96
REMARK   42  A    between atoms: _100  and  _102
REMARK   43  A    between atoms: _102  and  _103
REMARK   44  A    between atoms: _102  and  _105
REMARK   45  A    between atoms: _105  and  _106
REMARK   46  A    between atoms: _106  and  _107
REMARK   47  A    between atoms: _112  and  _114
REMARK   48  A    between atoms: _114  and  _115
REMARK   49  A    between atoms: _114  and  _117
REMARK   50  A    between atoms: _117  and  _118
REMARK   51  A    between atoms: _118  and  _119
REMARK   52  A    between atoms: _119  and  _120
REMARK   53  A    between atoms: _129  and  _131
REMARK   54  A    between atoms: _131  and  _132
REMARK   55  A    between atoms: _131  and  _134
REMARK   56  A    between atoms: _137  and  _139
REMARK   57  A    between atoms: _139  and  _140
REMARK   58  A    between atoms: _139  and  _142
REMARK   59  A    between atoms: _142  and  _143
REMARK   60  A    between atoms: _146  and  _148
REMARK   61  A    between atoms: _148  and  _149
REMARK   62  A    between atoms: _148  and  _151
REMARK   63  A    between atoms: _151  and  _152
REMARK   64  A    between atoms: _155  and  _157
REMARK   65  A    between atoms: _157  and  _158
REMARK   66  A    between atoms: _157  and  _160
REMARK   67  A    between atoms: _160  and  _161
REMARK   68  A    between atoms: _163  and  _165
REMARK   69  A    between atoms: _165  and  _166
REMARK   70  A    between atoms: _165  and  _168
REMARK   71  A    between atoms: _168  and  _169
REMARK   72  A    between atoms: _172  and  _174
REMARK   73  A    between atoms: _174  and  _175
REMARK   74  A    between atoms: _174  and  _177
REMARK   75  A    between atoms: _177  and  _178
REMARK   76  A    between atoms: _180  and  _182
REMARK   77  A    between atoms: _182  and  _183
REMARK   78  A    between atoms: _182  and  _185
REMARK   79  A    between atoms: _185  and  _186
REMARK   80  A    between atoms: _191  and  _193
REMARK   81  A    between atoms: _193  and  _194
REMARK   82  A    between atoms: _193  and  _196
REMARK   83  A    between atoms: _196  and  _197
REMARK   84  A    between atoms: _200  and  _202
REMARK   85  A    between atoms: _202  and  _203
REMARK   86  A    between atoms: _202  and  _205
REMARK   87  A    between atoms: _205  and  _206
REMARK   88  A    between atoms: _211  and  _213
REMARK   89  A    between atoms: _213  and  _214
REMARK   90  A    between atoms: _216  and  _218
REMARK   91  A    between atoms: _218  and  _219
REMARK   92  A    between atoms: _218  and  _221
REMARK   93  A    between atoms: _221  and  _222
REMARK   94  A    between atoms: _225  and  _227
REMARK   95  A    between atoms: _227  and  _228
REMARK   96  A    between atoms: _227  and  _230
REMARK   97  A    between atoms: _230  and  _231
REMARK   98  A    between atoms: _234  and  _236
REMARK   99  A    between atoms: _236  and  _237
REMARK  100  A    between atoms: _236  and  _239
REMARK  101  A    between atoms: _239  and  _240
REMARK  102  A    between atoms: _242  and  _244
REMARK  103  A    between atoms: _244  and  _245
REMARK  104  A    between atoms: _244  and  _247
REMARK  105  A    between atoms: _249  and  _251
REMARK  106  A    between atoms: _251  and  _252
REMARK  107  A    between atoms: _251  and  _254
REMARK  108  A    between atoms: _254  and  _255
REMARK  109  A    between atoms: _257  and  _259
REMARK  110  A    between atoms: _259  and  _260
REMARK  111  A    between atoms: _259  and  _262
REMARK  112  A    between atoms: _262  and  _263
REMARK  113  A    between atoms: _265  and  _267
REMARK  114  A    between atoms: _267  and  _268
REMARK  115  A    between atoms: _267  and  _270
REMARK  116  A    between atoms: _270  and  _271
REMARK  117  A    between atoms: _276  and  _278
REMARK  118  A    between atoms: _278  and  _279
REMARK  119  A    between atoms: _278  and  _281
REMARK  120  A    between atoms: _281  and  _282
REMARK  121  A    between atoms: _287  and  _288
REMARK  122  A    between atoms: _290  and  _292
REMARK  123  A    between atoms: _292  and  _293
REMARK  124  A    between atoms: _292  and  _295
REMARK  125  A    between atoms: _295  and  _296
REMARK  126  A    between atoms: _299  and  _301
REMARK  127  A    between atoms: _301  and  _302
REMARK  128  A    between atoms: _301  and  _304
REMARK  129  A    between atoms: _304  and  _305
REMARK  130  A    between atoms: _308  and  _310
REMARK  131  A    between atoms: _310  and  _311
REMARK  132  A    between atoms: _310  and  _313
REMARK  133  A    between atoms: _313  and  _314
REMARK  134  A    between atoms: _314  and  _315
REMARK  135  A    between atoms: _315  and  _316
REMARK  136  A    between atoms: _326  and  _327
REMARK  137  A    between atoms: _332  and  _334
REMARK  138  A    between atoms: _334  and  _335
REMARK  139  A    between atoms: _334  and  _337
REMARK  140  A    between atoms: _337  and  _338
REMARK  141  A    between atoms: _338  and  _339
REMARK  142  A    between atoms: _339  and  _340
REMARK  143  A    between atoms: _349  and  _351
REMARK  144  A    between atoms: _351  and  _352
REMARK  145  A    between atoms: _351  and  _354
REMARK  146  A    between atoms: _354  and  _355
REMARK  147  A    between atoms: _355  and  _356
REMARK  148  A    between atoms: _359  and  _361
REMARK  149  A    between atoms: _361  and  _362
REMARK  150  A    between atoms: _361  and  _364
REMARK  151  A    between atoms: _364  and  _365
REMARK  152  A    between atoms: _368  and  _370
REMARK  153  A    between atoms: _370  and  _371
REMARK  154  A    between atoms: _370  and  _373
REMARK  155  A    between atoms: _373  and  _374
REMARK  156  A    between atoms: _379  and  _381
REMARK  157  A    between atoms: _381  and  _382
REMARK  158  A    between atoms: _381  and  _384
REMARK  159  A    between atoms: _384  and  _385
REMARK  160  A    between atoms: _387  and  _389
REMARK  161  A    between atoms: _389  and  _390
REMARK  162  A    between atoms: _389  and  _392
REMARK  163  A    between atoms: _392  and  _393
REMARK  164  A    between atoms: _403  and  _405
REMARK  165  A    between atoms: _405  and  _406
REMARK  166  A    between atoms: _405  and  _408
REMARK  167  A    between atoms: _408  and  _409
REMARK  168  A    between atoms: _412  and  _414
REMARK  169  A    between atoms: _414  and  _415
REMARK  170  A    between atoms: _417  and  _419
REMARK  171  A    between atoms: _419  and  _420
REMARK  172  A    between atoms: _419  and  _422
REMARK  173  A    between atoms: _422  and  _423
REMARK  174  A    between atoms: _428  and  _430
REMARK  175  A    between atoms: _430  and  _431
REMARK  176  A    between atoms: _430  and  _433
REMARK  177  A    between atoms: _433  and  _434
REMARK  178  A    between atoms: _437  and  _439
REMARK  179  A    between atoms: _439  and  _440
REMARK  180  A    between atoms: _439  and  _442
REMARK  181  A    between atoms: _442  and  _443
REMARK  182  A    between atoms: _446  and  _448
REMARK  183  A    between atoms: _448  and  _449
REMARK  184  A    between atoms: _448  and  _451
REMARK  185  A    between atoms: _451  and  _452
REMARK  186  A    between atoms: _452  and  _453
REMARK  187  A    between atoms: _455  and  _457
REMARK  188  A    between atoms: _457  and  _458
REMARK  189  A    between atoms: _457  and  _460
REMARK  190  A    between atoms: _460  and  _461
REMARK  191  A    between atoms: _466  and  _467
REMARK  192  A    between atoms: _469  and  _471
REMARK  193  A    between atoms: _471  and  _472
REMARK  194  A    between atoms: _476  and  _477
REMARK  195  A    between atoms: _482  and  _484
REMARK  196  A    between atoms: _484  and  _485
REMARK  197  A    between atoms: _484  and  _487
REMARK  198  A    between atoms: _487  and  _488
REMARK  199  A    between atoms: _491  and  _493
REMARK  200  A    between atoms: _493  and  _494
REMARK  201  A    between atoms: _493  and  _496
REMARK  202  A    between atoms: _496  and  _497
REMARK  203  A    between atoms: _507  and  _509
REMARK  204  A    between atoms: _509  and  _510
REMARK  205  A    between atoms: _509  and  _512
REMARK  206  A    between atoms: _514  and  _516
REMARK  207  A    between atoms: _516  and  _517
REMARK  208  A    between atoms: _516  and  _519
REMARK  209  A    between atoms: _519  and  _520
REMARK  210  A    between atoms: _520  and  _521
REMARK  211  A    between atoms: _526  and  _528
REMARK  212  A    between atoms: _528  and  _529
REMARK  213  A    between atoms: _528  and  _531
REMARK  214  A    between atoms: _531  and  _532
REMARK  215  A    between atoms: _535  and  _537
REMARK  216  A    between atoms: _537  and  _538
REMARK  217  A    between atoms: _537  and  _540
REMARK  218  A    between atoms: _540  and  _541
REMARK  219  A    between atoms: _546  and  _547
REMARK  220  A    between atoms: _549  and  _551
REMARK  221  A    between atoms: _551  and  _552
REMARK  222  A    between atoms: _554  and  _556
REMARK  223  A    between atoms: _556  and  _557
REMARK  224  A    between atoms: _560  and  _562
REMARK  225  A    between atoms: _562  and  _563
REMARK  226  A    between atoms: _562  and  _565
REMARK  227  A    between atoms: _567  and  _569
REMARK  228  A    between atoms: _569  and  _570
REMARK  229  A    between atoms: _569  and  _572
REMARK  230  A    between atoms: _572  and  _573
REMARK  231  A    between atoms: _578  and  _579
REMARK  232  A    between atoms: _581  and  _583
REMARK  233  A    between atoms: _583  and  _584
REMARK  234  A    between atoms: _583  and  _586
REMARK  235  A    between atoms: _586  and  _587
REMARK  236  A    between atoms: _590  and  _592
REMARK  237  A    between atoms: _592  and  _593
REMARK  238  A    between atoms: _592  and  _595
REMARK  239  A    between atoms: _595  and  _596
REMARK  240  A    between atoms: _601  and  _603
REMARK  241  A    between atoms: _603  and  _604
REMARK  242  A    between atoms: _603  and  _606
REMARK  243  A    between atoms: _606  and  _607
REMARK  244  A    between atoms: _617  and  _619
REMARK  245  A    between atoms: _619  and  _620
REMARK  246  A    between atoms: _619  and  _622
REMARK  247  A    between atoms: _622  and  _623
REMARK  248  A    between atoms: _629  and  _631
REMARK  249  A    between atoms: _631  and  _632
REMARK  250  A    between atoms: _635  and  _637
REMARK  251  A    between atoms: _637  and  _638
REMARK  252  A    between atoms: _640  and  _642
REMARK  253  A    between atoms: _642  and  _643
REMARK  254  A    between atoms: _642  and  _645
REMARK  255  A    between atoms: _645  and  _646
REMARK  256  A    between atoms: _651  and  _652
REMARK  257  A    between atoms: _654  and  _656
REMARK  258  A    between atoms: _656  and  _657
REMARK  259  A    between atoms: _656  and  _659
REMARK  260  A    between atoms: _659  and  _660
REMARK  261  A    between atoms: _662  and  _664
REMARK  262  A    between atoms: _664  and  _665
REMARK                            x       y       z     vdW  Elec       q    Type
REMARK                         _______ _______ _______ _____ _____    ______ ____
ROOT
ATOM      1  O   HOH     1     -15.488  -6.088  19.948  0.00  0.00    +0.000 OA
ENDROOT
TORSDOF 0
REMARK  Name = ../refined-set-2016/3hky/3hky_pocket.pdb
REMARK  262 active torsions:
REMARK  status: ('A' for Active; 'I' for Inactive)
REMARK    1  A    between atoms: _1  and  _3
REMARK    2  A    between atoms: _3  and  _4
REMARK    3  A    between atoms: _3  and  _6
REMARK    4  A    between atoms: _6  and  _7
REMARK    5  A    between atoms: _7  and  _8
REMARK    6  A    between atoms: _8  and  _9
REMARK    7  A    between atoms: _9  and  _10
REMARK    8  A    between atoms: _14  and  _16
REMARK    9  A    between atoms: _16  and  _17
REMARK   10  A    between atoms: _16  and  _19
REMARK   11  A    between atoms: _19  and  _20
REMARK   12  A    between atoms: _20  and  _21
REMARK   13  A    between atoms: _24  and  _26
REMARK   14  A    between atoms: _26  and  _27
REMARK   15  A    between atoms: _26  and  _29
REMARK   16  A    between atoms: _29  and  _30
REMARK   17  A    between atoms: _30  and  _31
REMARK   18  A    between atoms: _31  and  _32
REMARK   19  A    between atoms: _41  and  _43
REMARK   20  A    between atoms: _43  and  _44
REMARK   21  A    between atoms: _46  and  _48
REMARK   22  A    between atoms: _48  and  _49
REMARK   23  A    between atoms: _48  and  _51
REMARK   24  A    between atoms: _51  and  _52
REMARK   25  A    between atoms: _58  and  _60
REMARK   26  A    between atoms: _60  and  _61
REMARK   27  A    between atoms: _60  and  _63
REMARK   28  A    between atoms: _63  and  _64
REMARK   29  A    between atoms: _69  and  _70
REMARK   30  A    between atoms: _72  and  _74
REMARK   31  A    between atoms: _74  and  _75
REMARK   32  A    between atoms: _74  and  _77
REMARK   33  A    between atoms: _77  and  _78
REMARK   34  A    between atoms: _81  and  _82
REMARK   35  A    between atoms: _87  and  _89
REMARK   36  A    between atoms: _89  and  _90
REMARK   37  A    between atoms: _89  and  _92
REMARK   38  A    between atoms: _92  and  _93
REMARK   39  A    between atoms: _93  and  _94
REMARK   40  A    between atoms: _94  and  _95
REMARK   41  A    between atoms: _95  and  _96
REMARK   42  A    between atoms: _100  and  _102
REMARK   43  A    between atoms: _102  and  _103
REMARK   44  A    between atoms: _102  and  _105
REMARK   45  A    between atoms: _105  and  _106
REMARK   46  A    between atoms: _106  and  _107
REMARK   47  A    between atoms: _112  and  _114
REMARK   48  A    between atoms: _114  and  _115
REMARK   49  A    between atoms: _114  and  _117
REMARK   50  A    between atoms: _117  and  _118
REMARK   51  A    between atoms: _118  and  _119
REMARK   52  A    between atoms: _119  and  _120
REMARK   53  A    between atoms: _129  and  _131
REMARK   54  A    between atoms: _131  and  _132
REMARK   55  A    between atoms: _131  and  _134
REMARK   56  A    between atoms: _137  and  _139
REMARK   57  A    between atoms: _139  and  _140
REMARK   58  A    between atoms: _139  and  _142
REMARK   59  A    between atoms: _142  and  _143
REMARK   60  A    between atoms: _146  and  _148
REMARK   61  A    between atoms: _148  and  _149
REMARK   62  A    between atoms: _148  and  _151
REMARK   63  A    between atoms: _151  and  _152
REMARK   64  A    between atoms: _155  and  _157
REMARK   65  A    between atoms: _157  and  _158
REMARK   66  A    between atoms: _157  and  _160
REMARK   67  A    between atoms: _160  and  _161
REMARK   68  A    between atoms: _163  and  _165
REMARK   69  A    between atoms: _165  and  _166
REMARK   70  A    between atoms: _165  and  _168
REMARK   71  A    between atoms: _168  and  _169
REMARK   72  A    between atoms: _172  and  _174
REMARK   73  A    between atoms: _174  and  _175
REMARK   74  A    between atoms: _174  and  _177
REMARK   75  A    between atoms: _177  and  _178
REMARK   76  A    between atoms: _180  and  _182
REMARK   77  A    between atoms: _182  and  _183
REMARK   78  A    between atoms: _182  and  _185
REMARK   79  A    between atoms: _185  and  _186
REMARK   80  A    between atoms: _191  and  _193
REMARK   81  A    between atoms: _193  and  _194
REMARK   82  A    between atoms: _193  and  _196
REMARK   83  A    between atoms: _196  and  _197
REMARK   84  A    between atoms: _200  and  _202
REMARK   85  A    between atoms: _202  and  _203
REMARK   86  A    between atoms: _202  and  _205
REMARK   87  A    between atoms: _205  and  _206
REMARK   88  A    between atoms: _211  and  _213
REMARK   89  A    between atoms: _213  and  _214
REMARK   90  A    between atoms: _216  and  _218
REMARK   91  A    between atoms: _218  and  _219
REMARK   92  A    between atoms: _218  and  _221
REMARK   93  A    between atoms: _221  and  _222
REMARK   94  A    between atoms: _225  and  _227
REMARK   95  A    between atoms: _227  and  _228
REMARK   96  A    between atoms: _227  and  _230
REMARK   97  A    between atoms: _230  and  _231
REMARK   98  A    between atoms: _234  and  _236
REMARK   99  A    between atoms: _236  and  _237
REMARK  100  A    between atoms: _236  and  _239
REMARK  101  A    between atoms: _239  and  _240
REMARK  102  A    between atoms: _242  and  _244
REMARK  103  A    between atoms: _244  and  _245
REMARK  104  A    between atoms: _244  and  _247
REMARK  105  A    between atoms: _249  and  _251
REMARK  106  A    between atoms: _251  and  _252
REMARK  107  A    between atoms: _251  and  _254
REMARK  108  A    between atoms: _254  and  _255
REMARK  109  A    between atoms: _257  and  _259
REMARK  110  A    between atoms: _259  and  _260
REMARK  111  A    between atoms: _259  and  _262
REMARK  112  A    between atoms: _262  and  _263
REMARK  113  A    between atoms: _265  and  _267
REMARK  114  A    between atoms: _267  and  _268
REMARK  115  A    between atoms: _267  and  _270
REMARK  116  A    between atoms: _270  and  _271
REMARK  117  A    between atoms: _276  and  _278
REMARK  118  A    between atoms: _278  and  _279
REMARK  119  A    between atoms: _278  and  _281
REMARK  120  A    between atoms: _281  and  _282
REMARK  121  A    between atoms: _287  and  _288
REMARK  122  A    between atoms: _290  and  _292
REMARK  123  A    between atoms: _292  and  _293
REMARK  124  A    between atoms: _292  and  _295
REMARK  125  A    between atoms: _295  and  _296
REMARK  126  A    between atoms: _299  and  _301
REMARK  127  A    between atoms: _301  and  _302
REMARK  128  A    between atoms: _301  and  _304
REMARK  129  A    between atoms: _304  and  _305
REMARK  130  A    between atoms: _308  and  _310
REMARK  131  A    between atoms: _310  and  _311
REMARK  132  A    between atoms: _310  and  _313
REMARK  133  A    between atoms: _313  and  _314
REMARK  134  A    between atoms: _314  and  _315
REMARK  135  A    between atoms: _315  and  _316
REMARK  136  A    between atoms: _326  and  _327
REMARK  137  A    between atoms: _332  and  _334
REMARK  138  A    between atoms: _334  and  _335
REMARK  139  A    between atoms: _334  and  _337
REMARK  140  A    between atoms: _337  and  _338
REMARK  141  A    between atoms: _338  and  _339
REMARK  142  A    between atoms: _339  and  _340
REMARK  143  A    between atoms: _349  and  _351
REMARK  144  A    between atoms: _351  and  _352
REMARK  145  A    between atoms: _351  and  _354
REMARK  146  A    between atoms: _354  and  _355
REMARK  147  A    between atoms: _355  and  _356
REMARK  148  A    between atoms: _359  and  _361
REMARK  149  A    between atoms: _361  and  _362
REMARK  150  A    between atoms: _361  and  _364
REMARK  151  A    between atoms: _364  and  _365
REMARK  152  A    between atoms: _368  and  _370
REMARK  153  A    between atoms: _370  and  _371
REMARK  154  A    between atoms: _370  and  _373
REMARK  155  A    between atoms: _373  and  _374
REMARK  156  A    between atoms: _379  and  _381
REMARK  157  A    between atoms: _381  and  _382
REMARK  158  A    between atoms: _381  and  _384
REMARK  159  A    between atoms: _384  and  _385
REMARK  160  A    between atoms: _387  and  _389
REMARK  161  A    between atoms: _389  and  _390
REMARK  162  A    between atoms: _389  and  _392
REMARK  163  A    between atoms: _392  and  _393
REMARK  164  A    between atoms: _403  and  _405
REMARK  165  A    between atoms: _405  and  _406
REMARK  166  A    between atoms: _405  and  _408
REMARK  167  A    between atoms: _408  and  _409
REMARK  168  A    between atoms: _412  and  _414
REMARK  169  A    between atoms: _414  and  _415
REMARK  170  A    between atoms: _417  and  _419
REMARK  171  A    between atoms: _419  and  _420
REMARK  172  A    between atoms: _419  and  _422
REMARK  173  A    between atoms: _422  and  _423
REMARK  174  A    between atoms: _428  and  _430
REMARK  175  A    between atoms: _430  and  _431
REMARK  176  A    between atoms: _430  and  _433
REMARK  177  A    between atoms: _433  and  _434
REMARK  178  A    between atoms: _437  and  _439
REMARK  179  A    between atoms: _439  and  _440
REMARK  180  A    between atoms: _439  and  _442
REMARK  181  A    between atoms: _442  and  _443
REMARK  182  A    between atoms: _446  and  _448
REMARK  183  A    between atoms: _448  and  _449
REMARK  184  A    between atoms: _448  and  _451
REMARK  185  A    between atoms: _451  and  _452
REMARK  186  A    between atoms: _452  and  _453
REMARK  187  A    between atoms: _455  and  _457
REMARK  188  A    between atoms: _457  and  _458
REMARK  189  A    between atoms: _457  and  _460
REMARK  190  A    between atoms: _460  and  _461
REMARK  191  A    between atoms: _466  and  _467
REMARK  192  A    between atoms: _469  and  _471
REMARK  193  A    between atoms: _471  and  _472
REMARK  194  A    between atoms: _476  and  _477
REMARK  195  A    between atoms: _482  and  _484
REMARK  196  A    between atoms: _484  and  _485
REMARK  197  A    between atoms: _484  and  _487
REMARK  198  A    between atoms: _487  and  _488
REMARK  199  A    between atoms: _491  and  _493
REMARK  200  A    between atoms: _493  and  _494
REMARK  201  A    between atoms: _493  and  _496
REMARK  202  A    between atoms: _496  and  _497
REMARK  203  A    between atoms: _507  and  _509
REMARK  204  A    between atoms: _509  and  _510
REMARK  205  A    between atoms: _509  and  _512
REMARK  206  A    between atoms: _514  and  _516
REMARK  207  A    between atoms: _516  and  _517
REMARK  208  A    between atoms: _516  and  _519
REMARK  209  A    between atoms: _519  and  _520
REMARK  210  A    between atoms: _520  and  _521
REMARK  211  A    between atoms: _526  and  _528
REMARK  212  A    between atoms: _528  and  _529
REMARK  213  A    between atoms: _528  and  _531
REMARK  214  A    between atoms: _531  and  _532
REMARK  215  A    between atoms: _535  and  _537
REMARK  216  A    between atoms: _537  and  _538
REMARK  217  A    between atoms: _537  and  _540
REMARK  218  A    between atoms: _540  and  _541
REMARK  219  A    between atoms: _546  and  _547
REMARK  220  A    between atoms: _549  and  _551
REMARK  221  A    between atoms: _551  and  _552
REMARK  222  A    between atoms: _554  and  _556
REMARK  223  A    between atoms: _556  and  _557
REMARK  224  A    between atoms: _560  and  _562
REMARK  225  A    between atoms: _562  and  _563
REMARK  226  A    between atoms: _562  and  _565
REMARK  227  A    between atoms: _567  and  _569
REMARK  228  A    between atoms: _569  and  _570
REMARK  229  A    between atoms: _569  and  _572
REMARK  230  A    between atoms: _572  and  _573
REMARK  231  A    between atoms: _578  and  _579
REMARK  232  A    between atoms: _581  and  _583
REMARK  233  A    between atoms: _583  and  _584
REMARK  234  A    between atoms: _583  and  _586
REMARK  235  A    between atoms: _586  and  _587
REMARK  236  A    between atoms: _590  and  _592
REMARK  237  A    between atoms: _592  and  _593
REMARK  238  A    between atoms: _592  and  _595
REMARK  239  A    between atoms: _595  and  _596
REMARK  240  A    between atoms: _601  and  _603
REMARK  241  A    between atoms: _603  and  _604
REMARK  242  A    between atoms: _603  and  _606
REMARK  243  A    between atoms: _606  and  _607
REMARK  244  A    between atoms: _617  and  _619
REMARK  245  A    between atoms: _619  and  _620
REMARK  246  A    between atoms: _619  and  _622
REMARK  247  A    between atoms: _622  and  _623
REMARK  248  A    between atoms: _629  and  _631
REMARK  249  A    between atoms: _631  and  _632
REMARK  250  A    between atoms: _635  and  _637
REMARK  251  A    between atoms: _637  and  _638
REMARK  252  A    between atoms: _640  and  _642
REMARK  253  A    between atoms: _642  and  _643
REMARK  254  A    between atoms: _642  and  _645
REMARK  255  A    between atoms: _645  and  _646
REMARK  256  A    between atoms: _651  and  _652
REMARK  257  A    between atoms: _654  and  _656
REMARK  258  A    between atoms: _656  and  _657
REMARK  259  A    between atoms: _656  and  _659
REMARK  260  A    between atoms: _659  and  _660
REMARK  261  A    between atoms: _662  and  _664
REMARK  262  A    between atoms: _664  and  _665
REMARK                            x       y       z     vdW  Elec       q    Type
REMARK                         _______ _______ _______ _____ _____    ______ ____
ROOT
ATOM      1  O   HOH     1     -22.913  -6.080  19.016  0.00  0.00    +0.000 OA
ENDROOT
TORSDOF 0
REMARK  Name = ../refined-set-2016/3hky/3hky_pocket.pdb
REMARK  262 active torsions:
REMARK  status: ('A' for Active; 'I' for Inactive)
REMARK    1  A    between atoms: _1  and  _3
REMARK    2  A    between atoms: _3  and  _4
REMARK    3  A    between atoms: _3  and  _6
REMARK    4  A    between atoms: _6  and  _7
REMARK    5  A    between atoms: _7  and  _8
REMARK    6  A    between atoms: _8  and  _9
REMARK    7  A    between atoms: _9  and  _10
REMARK    8  A    between atoms: _14  and  _16
REMARK    9  A    between atoms: _16  and  _17
REMARK   10  A    between atoms: _16  and  _19
REMARK   11  A    between atoms: _19  and  _20
REMARK   12  A    between atoms: _20  and  _21
REMARK   13  A    between atoms: _24  and  _26
REMARK   14  A    between atoms: _26  and  _27
REMARK   15  A    between atoms: _26  and  _29
REMARK   16  A    between atoms: _29  and  _30
REMARK   17  A    between atoms: _30  and  _31
REMARK   18  A    between atoms: _31  and  _32
REMARK   19  A    between atoms: _41  and  _43
REMARK   20  A    between atoms: _43  and  _44
REMARK   21  A    between atoms: _46  and  _48
REMARK   22  A    between atoms: _48  and  _49
REMARK   23  A    between atoms: _48  and  _51
REMARK   24  A    between atoms: _51  and  _52
REMARK   25  A    between atoms: _58  and  _60
REMARK   26  A    between atoms: _60  and  _61
REMARK   27  A    between atoms: _60  and  _63
REMARK   28  A    between atoms: _63  and  _64
REMARK   29  A    between atoms: _69  and  _70
REMARK   30  A    between atoms: _72  and  _74
REMARK   31  A    between atoms: _74  and  _75
REMARK   32  A    between atoms: _74  and  _77
REMARK   33  A    between atoms: _77  and  _78
REMARK   34  A    between atoms: _81  and  _82
REMARK   35  A    between atoms: _87  and  _89
REMARK   36  A    between atoms: _89  and  _90
REMARK   37  A    between atoms: _89  and  _92
REMARK   38  A    between atoms: _92  and  _93
REMARK   39  A    between atoms: _93  and  _94
REMARK   40  A    between atoms: _94  and  _95
REMARK   41  A    between atoms: _95  and  _96
REMARK   42  A    between atoms: _100  and  _102
REMARK   43  A    between atoms: _102  and  _103
REMARK   44  A    between atoms: _102  and  _105
REMARK   45  A    between atoms: _105  and  _106
REMARK   46  A    between atoms: _106  and  _107
REMARK   47  A    between atoms: _112  and  _114
REMARK   48  A    between atoms: _114  and  _115
REMARK   49  A    between atoms: _114  and  _117
REMARK   50  A    between atoms: _117  and  _118
REMARK   51  A    between atoms: _118  and  _119
REMARK   52  A    between atoms: _119  and  _120
REMARK   53  A    between atoms: _129  and  _131
REMARK   54  A    between atoms: _131  and  _132
REMARK   55  A    between atoms: _131  and  _134
REMARK   56  A    between atoms: _137  and  _139
REMARK   57  A    between atoms: _139  and  _140
REMARK   58  A    between atoms: _139  and  _142
REMARK   59  A    between atoms: _142  and  _143
REMARK   60  A    between atoms: _146  and  _148
REMARK   61  A    between atoms: _148  and  _149
REMARK   62  A    between atoms: _148  and  _151
REMARK   63  A    between atoms: _151  and  _152
REMARK   64  A    between atoms: _155  and  _157
REMARK   65  A    between atoms: _157  and  _158
REMARK   66  A    between atoms: _157  and  _160
REMARK   67  A    between atoms: _160  and  _161
REMARK   68  A    between atoms: _163  and  _165
REMARK   69  A    between atoms: _165  and  _166
REMARK   70  A    between atoms: _165  and  _168
REMARK   71  A    between atoms: _168  and  _169
REMARK   72  A    between atoms: _172  and  _174
REMARK   73  A    between atoms: _174  and  _175
REMARK   74  A    between atoms: _174  and  _177
REMARK   75  A    between atoms: _177  and  _178
REMARK   76  A    between atoms: _180  and  _182
REMARK   77  A    between atoms: _182  and  _183
REMARK   78  A    between atoms: _182  and  _185
REMARK   79  A    between atoms: _185  and  _186
REMARK   80  A    between atoms: _191  and  _193
REMARK   81  A    between atoms: _193  and  _194
REMARK   82  A    between atoms: _193  and  _196
REMARK   83  A    between atoms: _196  and  _197
REMARK   84  A    between atoms: _200  and  _202
REMARK   85  A    between atoms: _202  and  _203
REMARK   86  A    between atoms: _202  and  _205
REMARK   87  A    between atoms: _205  and  _206
REMARK   88  A    between atoms: _211  and  _213
REMARK   89  A    between atoms: _213  and  _214
REMARK   90  A    between atoms: _216  and  _218
REMARK   91  A    between atoms: _218  and  _219
REMARK   92  A    between atoms: _218  and  _221
REMARK   93  A    between atoms: _221  and  _222
REMARK   94  A    between atoms: _225  and  _227
REMARK   95  A    between atoms: _227  and  _228
REMARK   96  A    between atoms: _227  and  _230
REMARK   97  A    between atoms: _230  and  _231
REMARK   98  A    between atoms: _234  and  _236
REMARK   99  A    between atoms: _236  and  _237
REMARK  100  A    between atoms: _236  and  _239
REMARK  101  A    between atoms: _239  and  _240
REMARK  102  A    between atoms: _242  and  _244
REMARK  103  A    between atoms: _244  and  _245
REMARK  104  A    between atoms: _244  and  _247
REMARK  105  A    between atoms: _249  and  _251
REMARK  106  A    between atoms: _251  and  _252
REMARK  107  A    between atoms: _251  and  _254
REMARK  108  A    between atoms: _254  and  _255
REMARK  109  A    between atoms: _257  and  _259
REMARK  110  A    between atoms: _259  and  _260
REMARK  111  A    between atoms: _259  and  _262
REMARK  112  A    between atoms: _262  and  _263
REMARK  113  A    between atoms: _265  and  _267
REMARK  114  A    between atoms: _267  and  _268
REMARK  115  A    between atoms: _267  and  _270
REMARK  116  A    between atoms: _270  and  _271
REMARK  117  A    between atoms: _276  and  _278
REMARK  118  A    between atoms: _278  and  _279
REMARK  119  A    between atoms: _278  and  _281
REMARK  120  A    between atoms: _281  and  _282
REMARK  121  A    between atoms: _287  and  _288
REMARK  122  A    between atoms: _290  and  _292
REMARK  123  A    between atoms: _292  and  _293
REMARK  124  A    between atoms: _292  and  _295
REMARK  125  A    between atoms: _295  and  _296
REMARK  126  A    between atoms: _299  and  _301
REMARK  127  A    between atoms: _301  and  _302
REMARK  128  A    between atoms: _301  and  _304
REMARK  129  A    between atoms: _304  and  _305
REMARK  130  A    between atoms: _308  and  _310
REMARK  131  A    between atoms: _310  and  _311
REMARK  132  A    between atoms: _310  and  _313
REMARK  133  A    between atoms: _313  and  _314
REMARK  134  A    between atoms: _314  and  _315
REMARK  135  A    between atoms: _315  and  _316
REMARK  136  A    between atoms: _326  and  _327
REMARK  137  A    between atoms: _332  and  _334
REMARK  138  A    between atoms: _334  and  _335
REMARK  139  A    between atoms: _334  and  _337
REMARK  140  A    between atoms: _337  and  _338
REMARK  141  A    between atoms: _338  and  _339
REMARK  142  A    between atoms: _339  and  _340
REMARK  143  A    between atoms: _349  and  _351
REMARK  144  A    between atoms: _351  and  _352
REMARK  145  A    between atoms: _351  and  _354
REMARK  146  A    between atoms: _354  and  _355
REMARK  147  A    between atoms: _355  and  _356
REMARK  148  A    between atoms: _359  and  _361
REMARK  149  A    between atoms: _361  and  _362
REMARK  150  A    between atoms: _361  and  _364
REMARK  151  A    between atoms: _364  and  _365
REMARK  152  A    between atoms: _368  and  _370
REMARK  153  A    between atoms: _370  and  _371
REMARK  154  A    between atoms: _370  and  _373
REMARK  155  A    between atoms: _373  and  _374
REMARK  156  A    between atoms: _379  and  _381
REMARK  157  A    between atoms: _381  and  _382
REMARK  158  A    between atoms: _381  and  _384
REMARK  159  A    between atoms: _384  and  _385
REMARK  160  A    between atoms: _387  and  _389
REMARK  161  A    between atoms: _389  and  _390
REMARK  162  A    between atoms: _389  and  _392
REMARK  163  A    between atoms: _392  and  _393
REMARK  164  A    between atoms: _403  and  _405
REMARK  165  A    between atoms: _405  and  _406
REMARK  166  A    between atoms: _405  and  _408
REMARK  167  A    between atoms: _408  and  _409
REMARK  168  A    between atoms: _412  and  _414
REMARK  169  A    between atoms: _414  and  _415
REMARK  170  A    between atoms: _417  and  _419
REMARK  171  A    between atoms: _419  and  _420
REMARK  172  A    between atoms: _419  and  _422
REMARK  173  A    between atoms: _422  and  _423
REMARK  174  A    between atoms: _428  and  _430
REMARK  175  A    between atoms: _430  and  _431
REMARK  176  A    between atoms: _430  and  _433
REMARK  177  A    between atoms: _433  and  _434
REMARK  178  A    between atoms: _437  and  _439
REMARK  179  A    between atoms: _439  and  _440
REMARK  180  A    between atoms: _439  and  _442
REMARK  181  A    between atoms: _442  and  _443
REMARK  182  A    between atoms: _446  and  _448
REMARK  183  A    between atoms: _448  and  _449
REMARK  184  A    between atoms: _448  and  _451
REMARK  185  A    between atoms: _451  and  _452
REMARK  186  A    between atoms: _452  and  _453
REMARK  187  A    between atoms: _455  and  _457
REMARK  188  A    between atoms: _457  and  _458
REMARK  189  A    between atoms: _457  and  _460
REMARK  190  A    between atoms: _460  and  _461
REMARK  191  A    between atoms: _466  and  _467
REMARK  192  A    between atoms: _469  and  _471
REMARK  193  A    between atoms: _471  and  _472
REMARK  194  A    between atoms: _476  and  _477
REMARK  195  A    between atoms: _482  and  _484
REMARK  196  A    between atoms: _484  and  _485
REMARK  197  A    between atoms: _484  and  _487
REMARK  198  A    between atoms: _487  and  _488
REMARK  199  A    between atoms: _491  and  _493
REMARK  200  A    between atoms: _493  and  _494
REMARK  201  A    between atoms: _493  and  _496
REMARK  202  A    between atoms: _496  and  _497
REMARK  203  A    between atoms: _507  and  _509
REMARK  204  A    between atoms: _509  and  _510
REMARK  205  A    between atoms: _509  and  _512
REMARK  206  A    between atoms: _514  and  _516
REMARK  207  A    between atoms: _516  and  _517
REMARK  208  A    between atoms: _516  and  _519
REMARK  209  A    between atoms: _519  and  _520
REMARK  210  A    between atoms: _520  and  _521
REMARK  211  A    between atoms: _526  and  _528
REMARK  212  A    between atoms: _528  and  _529
REMARK  213  A    between atoms: _528  and  _531
REMARK  214  A    between atoms: _531  and  _532
REMARK  215  A    between atoms: _535  and  _537
REMARK  216  A    between atoms: _537  and  _538
REMARK  217  A    between atoms: _537  and  _540
REMARK  218  A    between atoms: _540  and  _541
REMARK  219  A    between atoms: _546  and  _547
REMARK  220  A    between atoms: _549  and  _551
REMARK  221  A    between atoms: _551  and  _552
REMARK  222  A    between atoms: _554  and  _556
REMARK  223  A    between atoms: _556  and  _557
REMARK  224  A    between atoms: _560  and  _562
REMARK  225  A    between atoms: _562  and  _563
REMARK  226  A    between atoms: _562  and  _565
REMARK  227  A    between atoms: _567  and  _569
REMARK  228  A    between atoms: _569  and  _570
REMARK  229  A    between atoms: _569  and  _572
REMARK  230  A    between atoms: _572  and  _573
REMARK  231  A    between atoms: _578  and  _579
REMARK  232  A    between atoms: _581  and  _583
REMARK  233  A    between atoms: _583  and  _584
REMARK  234  A    between atoms: _583  and  _586
REMARK  235  A    between atoms: _586  and  _587
REMARK  236  A    between atoms: _590  and  _592
REMARK  237  A    between atoms: _592  and  _593
REMARK  238  A    between atoms: _592  and  _595
REMARK  239  A    between atoms: _595  and  _596
REMARK  240  A    between atoms: _601  and  _603
REMARK  241  A    between atoms: _603  and  _604
REMARK  242  A    between atoms: _603  and  _606
REMARK  243  A    between atoms: _606  and  _607
REMARK  244  A    between atoms: _617  and  _619
REMARK  245  A    between atoms: _619  and  _620
REMARK  246  A    between atoms: _619  and  _622
REMARK  247  A    between atoms: _622  and  _623
REMARK  248  A    between atoms: _629  and  _631
REMARK  249  A    between atoms: _631  and  _632
REMARK  250  A    between atoms: _635  and  _637
REMARK  251  A    between atoms: _637  and  _638
REMARK  252  A    between atoms: _640  and  _642
REMARK  253  A    between atoms: _642  and  _643
REMARK  254  A    between atoms: _642  and  _645
REMARK  255  A    between atoms: _645  and  _646
REMARK  256  A    between atoms: _651  and  _652
REMARK  257  A    between atoms: _654  and  _656
REMARK  258  A    between atoms: _656  and  _657
REMARK  259  A    between atoms: _656  and  _659
REMARK  260  A    between atoms: _659  and  _660
REMARK  261  A    between atoms: _662  and  _664
REMARK  262  A    between atoms: _664  and  _665
REMARK                            x       y       z     vdW  Elec       q    Type
REMARK                         _______ _______ _______ _____ _____    ______ ____
ROOT
ATOM      1  O   HOH     1     -33.710 -10.833  26.801  0.00  0.00    +0.000 OA
ENDROOT
TORSDOF 0
REMARK  Name = ../refined-set-2016/3hky/3hky_pocket.pdb
REMARK  262 active torsions:
REMARK  status: ('A' for Active; 'I' for Inactive)
REMARK    1  A    between atoms: _1  and  _3
REMARK    2  A    between atoms: _3  and  _4
REMARK    3  A    between atoms: _3  and  _6
REMARK    4  A    between atoms: _6  and  _7
REMARK    5  A    between atoms: _7  and  _8
REMARK    6  A    between atoms: _8  and  _9
REMARK    7  A    between atoms: _9  and  _10
REMARK    8  A    between atoms: _14  and  _16
REMARK    9  A    between atoms: _16  and  _17
REMARK   10  A    between atoms: _16  and  _19
REMARK   11  A    between atoms: _19  and  _20
REMARK   12  A    between atoms: _20  and  _21
REMARK   13  A    between atoms: _24  and  _26
REMARK   14  A    between atoms: _26  and  _27
REMARK   15  A    between atoms: _26  and  _29
REMARK   16  A    between atoms: _29  and  _30
REMARK   17  A    between atoms: _30  and  _31
REMARK   18  A    between atoms: _31  and  _32
REMARK   19  A    between atoms: _41  and  _43
REMARK   20  A    between atoms: _43  and  _44
REMARK   21  A    between atoms: _46  and  _48
REMARK   22  A    between atoms: _48  and  _49
REMARK   23  A    between atoms: _48  and  _51
REMARK   24  A    between atoms: _51  and  _52
REMARK   25  A    between atoms: _58  and  _60
REMARK   26  A    between atoms: _60  and  _61
REMARK   27  A    between atoms: _60  and  _63
REMARK   28  A    between atoms: _63  and  _64
REMARK   29  A    between atoms: _69  and  _70
REMARK   30  A    between atoms: _72  and  _74
REMARK   31  A    between atoms: _74  and  _75
REMARK   32  A    between atoms: _74  and  _77
REMARK   33  A    between atoms: _77  and  _78
REMARK   34  A    between atoms: _81  and  _82
REMARK   35  A    between atoms: _87  and  _89
REMARK   36  A    between atoms: _89  and  _90
REMARK   37  A    between atoms: _89  and  _92
REMARK   38  A    between atoms: _92  and  _93
REMARK   39  A    between atoms: _93  and  _94
REMARK   40  A    between atoms: _94  and  _95
REMARK   41  A    between atoms: _95  and  _96
REMARK   42  A    between atoms: _100  and  _102
REMARK   43  A    between atoms: _102  and  _103
REMARK   44  A    between atoms: _102  and  _105
REMARK   45  A    between atoms: _105  and  _106
REMARK   46  A    between atoms: _106  and  _107
REMARK   47  A    between atoms: _112  and  _114
REMARK   48  A    between atoms: _114  and  _115
REMARK   49  A    between atoms: _114  and  _117
REMARK   50  A    between atoms: _117  and  _118
REMARK   51  A    between atoms: _118  and  _119
REMARK   52  A    between atoms: _119  and  _120
REMARK   53  A    between atoms: _129  and  _131
REMARK   54  A    between atoms: _131  and  _132
REMARK   55  A    between atoms: _131  and  _134
REMARK   56  A    between atoms: _137  and  _139
REMARK   57  A    between atoms: _139  and  _140
REMARK   58  A    between atoms: _139  and  _142
REMARK   59  A    between atoms: _142  and  _143
REMARK   60  A    between atoms: _146  and  _148
REMARK   61  A    between atoms: _148  and  _149
REMARK   62  A    between atoms: _148  and  _151
REMARK   63  A    between atoms: _151  and  _152
REMARK   64  A    between atoms: _155  and  _157
REMARK   65  A    between atoms: _157  and  _158
REMARK   66  A    between atoms: _157  and  _160
REMARK   67  A    between atoms: _160  and  _161
REMARK   68  A    between atoms: _163  and  _165
REMARK   69  A    between atoms: _165  and  _166
REMARK   70  A    between atoms: _165  and  _168
REMARK   71  A    between atoms: _168  and  _169
REMARK   72  A    between atoms: _172  and  _174
REMARK   73  A    between atoms: _174  and  _175
REMARK   74  A    between atoms: _174  and  _177
REMARK   75  A    between atoms: _177  and  _178
REMARK   76  A    between atoms: _180  and  _182
REMARK   77  A    between atoms: _182  and  _183
REMARK   78  A    between atoms: _182  and  _185
REMARK   79  A    between atoms: _185  and  _186
REMARK   80  A    between atoms: _191  and  _193
REMARK   81  A    between atoms: _193  and  _194
REMARK   82  A    between atoms: _193  and  _196
REMARK   83  A    between atoms: _196  and  _197
REMARK   84  A    between atoms: _200  and  _202
REMARK   85  A    between atoms: _202  and  _203
REMARK   86  A    between atoms: _202  and  _205
REMARK   87  A    between atoms: _205  and  _206
REMARK   88  A    between atoms: _211  and  _213
REMARK   89  A    between atoms: _213  and  _214
REMARK   90  A    between atoms: _216  and  _218
REMARK   91  A    between atoms: _218  and  _219
REMARK   92  A    between atoms: _218  and  _221
REMARK   93  A    between atoms: _221  and  _222
REMARK   94  A    between atoms: _225  and  _227
REMARK   95  A    between atoms: _227  and  _228
REMARK   96  A    between atoms: _227  and  _230
REMARK   97  A    between atoms: _230  and  _231
REMARK   98  A    between atoms: _234  and  _236
REMARK   99  A    between atoms: _236  and  _237
REMARK  100  A    between atoms: _236  and  _239
REMARK  101  A    between atoms: _239  and  _240
REMARK  102  A    between atoms: _242  and  _244
REMARK  103  A    between atoms: _244  and  _245
REMARK  104  A    between atoms: _244  and  _247
REMARK  105  A    between atoms: _249  and  _251
REMARK  106  A    between atoms: _251  and  _252
REMARK  107  A    between atoms: _251  and  _254
REMARK  108  A    between atoms: _254  and  _255
REMARK  109  A    between atoms: _257  and  _259
REMARK  110  A    between atoms: _259  and  _260
REMARK  111  A    between atoms: _259  and  _262
REMARK  112  A    between atoms: _262  and  _263
REMARK  113  A    between atoms: _265  and  _267
REMARK  114  A    between atoms: _267  and  _268
REMARK  115  A    between atoms: _267  and  _270
REMARK  116  A    between atoms: _270  and  _271
REMARK  117  A    between atoms: _276  and  _278
REMARK  118  A    between atoms: _278  and  _279
REMARK  119  A    between atoms: _278  and  _281
REMARK  120  A    between atoms: _281  and  _282
REMARK  121  A    between atoms: _287  and  _288
REMARK  122  A    between atoms: _290  and  _292
REMARK  123  A    between atoms: _292  and  _293
REMARK  124  A    between atoms: _292  and  _295
REMARK  125  A    between atoms: _295  and  _296
REMARK  126  A    between atoms: _299  and  _301
REMARK  127  A    between atoms: _301  and  _302
REMARK  128  A    between atoms: _301  and  _304
REMARK  129  A    between atoms: _304  and  _305
REMARK  130  A    between atoms: _308  and  _310
REMARK  131  A    between atoms: _310  and  _311
REMARK  132  A    between atoms: _310  and  _313
REMARK  133  A    between atoms: _313  and  _314
REMARK  134  A    between atoms: _314  and  _315
REMARK  135  A    between atoms: _315  and  _316
REMARK  136  A    between atoms: _326  and  _327
REMARK  137  A    between atoms: _332  and  _334
REMARK  138  A    between atoms: _334  and  _335
REMARK  139  A    between atoms: _334  and  _337
REMARK  140  A    between atoms: _337  and  _338
REMARK  141  A    between atoms: _338  and  _339
REMARK  142  A    between atoms: _339  and  _340
REMARK  143  A    between atoms: _349  and  _351
REMARK  144  A    between atoms: _351  and  _352
REMARK  145  A    between atoms: _351  and  _354
REMARK  146  A    between atoms: _354  and  _355
REMARK  147  A    between atoms: _355  and  _356
REMARK  148  A    between atoms: _359  and  _361
REMARK  149  A    between atoms: _361  and  _362
REMARK  150  A    between atoms: _361  and  _364
REMARK  151  A    between atoms: _364  and  _365
REMARK  152  A    between atoms: _368  and  _370
REMARK  153  A    between atoms: _370  and  _371
REMARK  154  A    between atoms: _370  and  _373
REMARK  155  A    between atoms: _373  and  _374
REMARK  156  A    between atoms: _379  and  _381
REMARK  157  A    between atoms: _381  and  _382
REMARK  158  A    between atoms: _381  and  _384
REMARK  159  A    between atoms: _384  and  _385
REMARK  160  A    between atoms: _387  and  _389
REMARK  161  A    between atoms: _389  and  _390
REMARK  162  A    between atoms: _389  and  _392
REMARK  163  A    between atoms: _392  and  _393
REMARK  164  A    between atoms: _403  and  _405
REMARK  165  A    between atoms: _405  and  _406
REMARK  166  A    between atoms: _405  and  _408
REMARK  167  A    between atoms: _408  and  _409
REMARK  168  A    between atoms: _412  and  _414
REMARK  169  A    between atoms: _414  and  _415
REMARK  170  A    between atoms: _417  and  _419
REMARK  171  A    between atoms: _419  and  _420
REMARK  172  A    between atoms: _419  and  _422
REMARK  173  A    between atoms: _422  and  _423
REMARK  174  A    between atoms: _428  and  _430
REMARK  175  A    between atoms: _430  and  _431
REMARK  176  A    between atoms: _430  and  _433
REMARK  177  A    between atoms: _433  and  _434
REMARK  178  A    between atoms: _437  and  _439
REMARK  179  A    between atoms: _439  and  _440
REMARK  180  A    between atoms: _439  and  _442
REMARK  181  A    between atoms: _442  and  _443
REMARK  182  A    between atoms: _446  and  _448
REMARK  183  A    between atoms: _448  and  _449
REMARK  184  A    between atoms: _448  and  _451
REMARK  185  A    between atoms: _451  and  _452
REMARK  186  A    between atoms: _452  and  _453
REMARK  187  A    between atoms: _455  and  _457
REMARK  188  A    between atoms: _457  and  _458
REMARK  189  A    between atoms: _457  and  _460
REMARK  190  A    between atoms: _460  and  _461
REMARK  191  A    between atoms: _466  and  _467
REMARK  192  A    between atoms: _469  and  _471
REMARK  193  A    between atoms: _471  and  _472
REMARK  194  A    between atoms: _476  and  _477
REMARK  195  A    between atoms: _482  and  _484
REMARK  196  A    between atoms: _484  and  _485
REMARK  197  A    between atoms: _484  and  _487
REMARK  198  A    between atoms: _487  and  _488
REMARK  199  A    between atoms: _491  and  _493
REMARK  200  A    between atoms: _493  and  _494
REMARK  201  A    between atoms: _493  and  _496
REMARK  202  A    between atoms: _496  and  _497
REMARK  203  A    between atoms: _507  and  _509
REMARK  204  A    between atoms: _509  and  _510
REMARK  205  A    between atoms: _509  and  _512
REMARK  206  A    between atoms: _514  and  _516
REMARK  207  A    between atoms: _516  and  _517
REMARK  208  A    between atoms: _516  and  _519
REMARK  209  A    between atoms: _519  and  _520
REMARK  210  A    between atoms: _520  and  _521
REMARK  211  A    between atoms: _526  and  _528
REMARK  212  A    between atoms: _528  and  _529
REMARK  213  A    between atoms: _528  and  _531
REMARK  214  A    between atoms: _531  and  _532
REMARK  215  A    between atoms: _535  and  _537
REMARK  216  A    between atoms: _537  and  _538
REMARK  217  A    between atoms: _537  and  _540
REMARK  218  A    between atoms: _540  and  _541
REMARK  219  A    between atoms: _546  and  _547
REMARK  220  A    between atoms: _549  and  _551
REMARK  221  A    between atoms: _551  and  _552
REMARK  222  A    between atoms: _554  and  _556
REMARK  223  A    between atoms: _556  and  _557
REMARK  224  A    between atoms: _560  and  _562
REMARK  225  A    between atoms: _562  and  _563
REMARK  226  A    between atoms: _562  and  _565
REMARK  227  A    between atoms: _567  and  _569
REMARK  228  A    between atoms: _569  and  _570
REMARK  229  A    between atoms: _569  and  _572
REMARK  230  A    between atoms: _572  and  _573
REMARK  231  A    between atoms: _578  and  _579
REMARK  232  A    between atoms: _581  and  _583
REMARK  233  A    between atoms: _583  and  _584
REMARK  234  A    between atoms: _583  and  _586
REMARK  235  A    between atoms: _586  and  _587
REMARK  236  A    between atoms: _590  and  _592
REMARK  237  A    between atoms: _592  and  _593
REMARK  238  A    between atoms: _592  and  _595
REMARK  239  A    between atoms: _595  and  _596
REMARK  240  A    between atoms: _601  and  _603
REMARK  241  A    between atoms: _603  and  _604
REMARK  242  A    between atoms: _603  and  _606
REMARK  243  A    between atoms: _606  and  _607
REMARK  244  A    between atoms: _617  and  _619
REMARK  245  A    between atoms: _619  and  _620
REMARK  246  A    between atoms: _619  and  _622
REMARK  247  A    between atoms: _622  and  _623
REMARK  248  A    between atoms: _629  and  _631
REMARK  249  A    between atoms: _631  and  _632
REMARK  250  A    between atoms: _635  and  _637
REMARK  251  A    between atoms: _637  and  _638
REMARK  252  A    between atoms: _640  and  _642
REMARK  253  A    between atoms: _642  and  _643
REMARK  254  A    between atoms: _642  and  _645
REMARK  255  A    between atoms: _645  and  _646
REMARK  256  A    between atoms: _651  and  _652
REMARK  257  A    between atoms: _654  and  _656
REMARK  258  A    between atoms: _656  and  _657
REMARK  259  A    between atoms: _656  and  _659
REMARK  260  A    between atoms: _659  and  _660
REMARK  261  A    between atoms: _662  and  _664
REMARK  262  A    between atoms: _664  and  _665
REMARK                            x       y       z     vdW  Elec       q    Type
REMARK                         _______ _______ _______ _____ _____    ______ ____
ROOT
ATOM      1  O   HOH     1     -26.435  -9.817  24.019  0.00  0.00    +0.000 OA
ENDROOT
TORSDOF 0
REMARK  Name = ../refined-set-2016/3hky/3hky_pocket.pdb
REMARK  262 active torsions:
REMARK  status: ('A' for Active; 'I' for Inactive)
REMARK    1  A    between atoms: _1  and  _3
REMARK    2  A    between atoms: _3  and  _4
REMARK    3  A    between atoms: _3  and  _6
REMARK    4  A    between atoms: _6  and  _7
REMARK    5  A    between atoms: _7  and  _8
REMARK    6  A    between atoms: _8  and  _9
REMARK    7  A    between atoms: _9  and  _10
REMARK    8  A    between atoms: _14  and  _16
REMARK    9  A    between atoms: _16  and  _17
REMARK   10  A    between atoms: _16  and  _19
REMARK   11  A    between atoms: _19  and  _20
REMARK   12  A    between atoms: _20  and  _21
REMARK   13  A    between atoms: _24  and  _26
REMARK   14  A    between atoms: _26  and  _27
REMARK   15  A    between atoms: _26  and  _29
REMARK   16  A    between atoms: _29  and  _30
REMARK   17  A    between atoms: _30  and  _31
REMARK   18  A    between atoms: _31  and  _32
REMARK   19  A    between atoms: _41  and  _43
REMARK   20  A    between atoms: _43  and  _44
REMARK   21  A    between atoms: _46  and  _48
REMARK   22  A    between atoms: _48  and  _49
REMARK   23  A    between atoms: _48  and  _51
REMARK   24  A    between atoms: _51  and  _52
REMARK   25  A    between atoms: _58  and  _60
REMARK   26  A    between atoms: _60  and  _61
REMARK   27  A    between atoms: _60  and  _63
REMARK   28  A    between atoms: _63  and  _64
REMARK   29  A    between atoms: _69  and  _70
REMARK   30  A    between atoms: _72  and  _74
REMARK   31  A    between atoms: _74  and  _75
REMARK   32  A    between atoms: _74  and  _77
REMARK   33  A    between atoms: _77  and  _78
REMARK   34  A    between atoms: _81  and  _82
REMARK   35  A    between atoms: _87  and  _89
REMARK   36  A    between atoms: _89  and  _90
REMARK   37  A    between atoms: _89  and  _92
REMARK   38  A    between atoms: _92  and  _93
REMARK   39  A    between atoms: _93  and  _94
REMARK   40  A    between atoms: _94  and  _95
REMARK   41  A    between atoms: _95  and  _96
REMARK   42  A    between atoms: _100  and  _102
REMARK   43  A    between atoms: _102  and  _103
REMARK   44  A    between atoms: _102  and  _105
REMARK   45  A    between atoms: _105  and  _106
REMARK   46  A    between atoms: _106  and  _107
REMARK   47  A    between atoms: _112  and  _114
REMARK   48  A    between atoms: _114  and  _115
REMARK   49  A    between atoms: _114  and  _117
REMARK   50  A    between atoms: _117  and  _118
REMARK   51  A    between atoms: _118  and  _119
REMARK   52  A    between atoms: _119  and  _120
REMARK   53  A    between atoms: _129  and  _131
REMARK   54  A    between atoms: _131  and  _132
REMARK   55  A    between atoms: _131  and  _134
REMARK   56  A    between atoms: _137  and  _139
REMARK   57  A    between atoms: _139  and  _140
REMARK   58  A    between atoms: _139  and  _142
REMARK   59  A    between atoms: _142  and  _143
REMARK   60  A    between atoms: _146  and  _148
REMARK   61  A    between atoms: _148  and  _149
REMARK   62  A    between atoms: _148  and  _151
REMARK   63  A    between atoms: _151  and  _152
REMARK   64  A    between atoms: _155  and  _157
REMARK   65  A    between atoms: _157  and  _158
REMARK   66  A    between atoms: _157  and  _160
REMARK   67  A    between atoms: _160  and  _161
REMARK   68  A    between atoms: _163  and  _165
REMARK   69  A    between atoms: _165  and  _166
REMARK   70  A    between atoms: _165  and  _168
REMARK   71  A    between atoms: _168  and  _169
REMARK   72  A    between atoms: _172  and  _174
REMARK   73  A    between atoms: _174  and  _175
REMARK   74  A    between atoms: _174  and  _177
REMARK   75  A    between atoms: _177  and  _178
REMARK   76  A    between atoms: _180  and  _182
REMARK   77  A    between atoms: _182  and  _183
REMARK   78  A    between atoms: _182  and  _185
REMARK   79  A    between atoms: _185  and  _186
REMARK   80  A    between atoms: _191  and  _193
REMARK   81  A    between atoms: _193  and  _194
REMARK   82  A    between atoms: _193  and  _196
REMARK   83  A    between atoms: _196  and  _197
REMARK   84  A    between atoms: _200  and  _202
REMARK   85  A    between atoms: _202  and  _203
REMARK   86  A    between atoms: _202  and  _205
REMARK   87  A    between atoms: _205  and  _206
REMARK   88  A    between atoms: _211  and  _213
REMARK   89  A    between atoms: _213  and  _214
REMARK   90  A    between atoms: _216  and  _218
REMARK   91  A    between atoms: _218  and  _219
REMARK   92  A    between atoms: _218  and  _221
REMARK   93  A    between atoms: _221  and  _222
REMARK   94  A    between atoms: _225  and  _227
REMARK   95  A    between atoms: _227  and  _228
REMARK   96  A    between atoms: _227  and  _230
REMARK   97  A    between atoms: _230  and  _231
REMARK   98  A    between atoms: _234  and  _236
REMARK   99  A    between atoms: _236  and  _237
REMARK  100  A    between atoms: _236  and  _239
REMARK  101  A    between atoms: _239  and  _240
REMARK  102  A    between atoms: _242  and  _244
REMARK  103  A    between atoms: _244  and  _245
REMARK  104  A    between atoms: _244  and  _247
REMARK  105  A    between atoms: _249  and  _251
REMARK  106  A    between atoms: _251  and  _252
REMARK  107  A    between atoms: _251  and  _254
REMARK  108  A    between atoms: _254  and  _255
REMARK  109  A    between atoms: _257  and  _259
REMARK  110  A    between atoms: _259  and  _260
REMARK  111  A    between atoms: _259  and  _262
REMARK  112  A    between atoms: _262  and  _263
REMARK  113  A    between atoms: _265  and  _267
REMARK  114  A    between atoms: _267  and  _268
REMARK  115  A    between atoms: _267  and  _270
REMARK  116  A    between atoms: _270  and  _271
REMARK  117  A    between atoms: _276  and  _278
REMARK  118  A    between atoms: _278  and  _279
REMARK  119  A    between atoms: _278  and  _281
REMARK  120  A    between atoms: _281  and  _282
REMARK  121  A    between atoms: _287  and  _288
REMARK  122  A    between atoms: _290  and  _292
REMARK  123  A    between atoms: _292  and  _293
REMARK  124  A    between atoms: _292  and  _295
REMARK  125  A    between atoms: _295  and  _296
REMARK  126  A    between atoms: _299  and  _301
REMARK  127  A    between atoms: _301  and  _302
REMARK  128  A    between atoms: _301  and  _304
REMARK  129  A    between atoms: _304  and  _305
REMARK  130  A    between atoms: _308  and  _310
REMARK  131  A    between atoms: _310  and  _311
REMARK  132  A    between atoms: _310  and  _313
REMARK  133  A    between atoms: _313  and  _314
REMARK  134  A    between atoms: _314  and  _315
REMARK  135  A    between atoms: _315  and  _316
REMARK  136  A    between atoms: _326  and  _327
REMARK  137  A    between atoms: _332  and  _334
REMARK  138  A    between atoms: _334  and  _335
REMARK  139  A    between atoms: _334  and  _337
REMARK  140  A    between atoms: _337  and  _338
REMARK  141  A    between atoms: _338  and  _339
REMARK  142  A    between atoms: _339  and  _340
REMARK  143  A    between atoms: _349  and  _351
REMARK  144  A    between atoms: _351  and  _352
REMARK  145  A    between atoms: _351  and  _354
REMARK  146  A    between atoms: _354  and  _355
REMARK  147  A    between atoms: _355  and  _356
REMARK  148  A    between atoms: _359  and  _361
REMARK  149  A    between atoms: _361  and  _362
REMARK  150  A    between atoms: _361  and  _364
REMARK  151  A    between atoms: _364  and  _365
REMARK  152  A    between atoms: _368  and  _370
REMARK  153  A    between atoms: _370  and  _371
REMARK  154  A    between atoms: _370  and  _373
REMARK  155  A    between atoms: _373  and  _374
REMARK  156  A    between atoms: _379  and  _381
REMARK  157  A    between atoms: _381  and  _382
REMARK  158  A    between atoms: _381  and  _384
REMARK  159  A    between atoms: _384  and  _385
REMARK  160  A    between atoms: _387  and  _389
REMARK  161  A    between atoms: _389  and  _390
REMARK  162  A    between atoms: _389  and  _392
REMARK  163  A    between atoms: _392  and  _393
REMARK  164  A    between atoms: _403  and  _405
REMARK  165  A    between atoms: _405  and  _406
REMARK  166  A    between atoms: _405  and  _408
REMARK  167  A    between atoms: _408  and  _409
REMARK  168  A    between atoms: _412  and  _414
REMARK  169  A    between atoms: _414  and  _415
REMARK  170  A    between atoms: _417  and  _419
REMARK  171  A    between atoms: _419  and  _420
REMARK  172  A    between atoms: _419  and  _422
REMARK  173  A    between atoms: _422  and  _423
REMARK  174  A    between atoms: _428  and  _430
REMARK  175  A    between atoms: _430  and  _431
REMARK  176  A    between atoms: _430  and  _433
REMARK  177  A    between atoms: _433  and  _434
REMARK  178  A    between atoms: _437  and  _439
REMARK  179  A    between atoms: _439  and  _440
REMARK  180  A    between atoms: _439  and  _442
REMARK  181  A    between atoms: _442  and  _443
REMARK  182  A    between atoms: _446  and  _448
REMARK  183  A    between atoms: _448  and  _449
REMARK  184  A    between atoms: _448  and  _451
REMARK  185  A    between atoms: _451  and  _452
REMARK  186  A    between atoms: _452  and  _453
REMARK  187  A    between atoms: _455  and  _457
REMARK  188  A    between atoms: _457  and  _458
REMARK  189  A    between atoms: _457  and  _460
REMARK  190  A    between atoms: _460  and  _461
REMARK  191  A    between atoms: _466  and  _467
REMARK  192  A    between atoms: _469  and  _471
REMARK  193  A    between atoms: _471  and  _472
REMARK  194  A    between atoms: _476  and  _477
REMARK  195  A    between atoms: _482  and  _484
REMARK  196  A    between atoms: _484  and  _485
REMARK  197  A    between atoms: _484  and  _487
REMARK  198  A    between atoms: _487  and  _488
REMARK  199  A    between atoms: _491  and  _493
REMARK  200  A    between atoms: _493  and  _494
REMARK  201  A    between atoms: _493  and  _496
REMARK  202  A    between atoms: _496  and  _497
REMARK  203  A    between atoms: _507  and  _509
REMARK  204  A    between atoms: _509  and  _510
REMARK  205  A    between atoms: _509  and  _512
REMARK  206  A    between atoms: _514  and  _516
REMARK  207  A    between atoms: _516  and  _517
REMARK  208  A    between atoms: _516  and  _519
REMARK  209  A    between atoms: _519  and  _520
REMARK  210  A    between atoms: _520  and  _521
REMARK  211  A    between atoms: _526  and  _528
REMARK  212  A    between atoms: _528  and  _529
REMARK  213  A    between atoms: _528  and  _531
REMARK  214  A    between atoms: _531  and  _532
REMARK  215  A    between atoms: _535  and  _537
REMARK  216  A    between atoms: _537  and  _538
REMARK  217  A    between atoms: _537  and  _540
REMARK  218  A    between atoms: _540  and  _541
REMARK  219  A    between atoms: _546  and  _547
REMARK  220  A    between atoms: _549  and  _551
REMARK  221  A    between atoms: _551  and  _552
REMARK  222  A    between atoms: _554  and  _556
REMARK  223  A    between atoms: _556  and  _557
REMARK  224  A    between atoms: _560  and  _562
REMARK  225  A    between atoms: _562  and  _563
REMARK  226  A    between atoms: _562  and  _565
REMARK  227  A    between atoms: _567  and  _569
REMARK  228  A    between atoms: _569  and  _570
REMARK  229  A    between atoms: _569  and  _572
REMARK  230  A    between atoms: _572  and  _573
REMARK  231  A    between atoms: _578  and  _579
REMARK  232  A    between atoms: _581  and  _583
REMARK  233  A    between atoms: _583  and  _584
REMARK  234  A    between atoms: _583  and  _586
REMARK  235  A    between atoms: _586  and  _587
REMARK  236  A    between atoms: _590  and  _592
REMARK  237  A    between atoms: _592  and  _593
REMARK  238  A    between atoms: _592  and  _595
REMARK  239  A    between atoms: _595  and  _596
REMARK  240  A    between atoms: _601  and  _603
REMARK  241  A    between atoms: _603  and  _604
REMARK  242  A    between atoms: _603  and  _606
REMARK  243  A    between atoms: _606  and  _607
REMARK  244  A    between atoms: _617  and  _619
REMARK  245  A    between atoms: _619  and  _620
REMARK  246  A    between atoms: _619  and  _622
REMARK  247  A    between atoms: _622  and  _623
REMARK  248  A    between atoms: _629  and  _631
REMARK  249  A    between atoms: _631  and  _632
REMARK  250  A    between atoms: _635  and  _637
REMARK  251  A    between atoms: _637  and  _638
REMARK  252  A    between atoms: _640  and  _642
REMARK  253  A    between atoms: _642  and  _643
REMARK  254  A    between atoms: _642  and  _645
REMARK  255  A    between atoms: _645  and  _646
REMARK  256  A    between atoms: _651  and  _652
REMARK  257  A    between atoms: _654  and  _656
REMARK  258  A    between atoms: _656  and  _657
REMARK  259  A    between atoms: _656  and  _659
REMARK  260  A    between atoms: _659  and  _660
REMARK  261  A    between atoms: _662  and  _664
REMARK  262  A    between atoms: _664  and  _665
REMARK                            x       y       z     vdW  Elec       q    Type
REMARK                         _______ _______ _______ _____ _____    ______ ____
ROOT
ATOM      1  O   HOH     1     -20.272  -6.491  19.210  0.00  0.00    +0.000 OA
ENDROOT
TORSDOF 0
REMARK  Name = ../refined-set-2016/3hky/3hky_pocket.pdb
REMARK  262 active torsions:
REMARK  status: ('A' for Active; 'I' for Inactive)
REMARK    1  A    between atoms: _1  and  _3
REMARK    2  A    between atoms: _3  and  _4
REMARK    3  A    between atoms: _3  and  _6
REMARK    4  A    between atoms: _6  and  _7
REMARK    5  A    between atoms: _7  and  _8
REMARK    6  A    between atoms: _8  and  _9
REMARK    7  A    between atoms: _9  and  _10
REMARK    8  A    between atoms: _14  and  _16
REMARK    9  A    between atoms: _16  and  _17
REMARK   10  A    between atoms: _16  and  _19
REMARK   11  A    between atoms: _19  and  _20
REMARK   12  A    between atoms: _20  and  _21
REMARK   13  A    between atoms: _24  and  _26
REMARK   14  A    between atoms: _26  and  _27
REMARK   15  A    between atoms: _26  and  _29
REMARK   16  A    between atoms: _29  and  _30
REMARK   17  A    between atoms: _30  and  _31
REMARK   18  A    between atoms: _31  and  _32
REMARK   19  A    between atoms: _41  and  _43
REMARK   20  A    between atoms: _43  and  _44
REMARK   21  A    between atoms: _46  and  _48
REMARK   22  A    between atoms: _48  and  _49
REMARK   23  A    between atoms: _48  and  _51
REMARK   24  A    between atoms: _51  and  _52
REMARK   25  A    between atoms: _58  and  _60
REMARK   26  A    between atoms: _60  and  _61
REMARK   27  A    between atoms: _60  and  _63
REMARK   28  A    between atoms: _63  and  _64
REMARK   29  A    between atoms: _69  and  _70
REMARK   30  A    between atoms: _72  and  _74
REMARK   31  A    between atoms: _74  and  _75
REMARK   32  A    between atoms: _74  and  _77
REMARK   33  A    between atoms: _77  and  _78
REMARK   34  A    between atoms: _81  and  _82
REMARK   35  A    between atoms: _87  and  _89
REMARK   36  A    between atoms: _89  and  _90
REMARK   37  A    between atoms: _89  and  _92
REMARK   38  A    between atoms: _92  and  _93
REMARK   39  A    between atoms: _93  and  _94
REMARK   40  A    between atoms: _94  and  _95
REMARK   41  A    between atoms: _95  and  _96
REMARK   42  A    between atoms: _100  and  _102
REMARK   43  A    between atoms: _102  and  _103
REMARK   44  A    between atoms: _102  and  _105
REMARK   45  A    between atoms: _105  and  _106
REMARK   46  A    between atoms: _106  and  _107
REMARK   47  A    between atoms: _112  and  _114
REMARK   48  A    between atoms: _114  and  _115
REMARK   49  A    between atoms: _114  and  _117
REMARK   50  A    between atoms: _117  and  _118
REMARK   51  A    between atoms: _118  and  _119
REMARK   52  A    between atoms: _119  and  _120
REMARK   53  A    between atoms: _129  and  _131
REMARK   54  A    between atoms: _131  and  _132
REMARK   55  A    between atoms: _131  and  _134
REMARK   56  A    between atoms: _137  and  _139
REMARK   57  A    between atoms: _139  and  _140
REMARK   58  A    between atoms: _139  and  _142
REMARK   59  A    between atoms: _142  and  _143
REMARK   60  A    between atoms: _146  and  _148
REMARK   61  A    between atoms: _148  and  _149
REMARK   62  A    between atoms: _148  and  _151
REMARK   63  A    between atoms: _151  and  _152
REMARK   64  A    between atoms: _155  and  _157
REMARK   65  A    between atoms: _157  and  _158
REMARK   66  A    between atoms: _157  and  _160
REMARK   67  A    between atoms: _160  and  _161
REMARK   68  A    between atoms: _163  and  _165
REMARK   69  A    between atoms: _165  and  _166
REMARK   70  A    between atoms: _165  and  _168
REMARK   71  A    between atoms: _168  and  _169
REMARK   72  A    between atoms: _172  and  _174
REMARK   73  A    between atoms: _174  and  _175
REMARK   74  A    between atoms: _174  and  _177
REMARK   75  A    between atoms: _177  and  _178
REMARK   76  A    between atoms: _180  and  _182
REMARK   77  A    between atoms: _182  and  _183
REMARK   78  A    between atoms: _182  and  _185
REMARK   79  A    between atoms: _185  and  _186
REMARK   80  A    between atoms: _191  and  _193
REMARK   81  A    between atoms: _193  and  _194
REMARK   82  A    between atoms: _193  and  _196
REMARK   83  A    between atoms: _196  and  _197
REMARK   84  A    between atoms: _200  and  _202
REMARK   85  A    between atoms: _202  and  _203
REMARK   86  A    between atoms: _202  and  _205
REMARK   87  A    between atoms: _205  and  _206
REMARK   88  A    between atoms: _211  and  _213
REMARK   89  A    between atoms: _213  and  _214
REMARK   90  A    between atoms: _216  and  _218
REMARK   91  A    between atoms: _218  and  _219
REMARK   92  A    between atoms: _218  and  _221
REMARK   93  A    between atoms: _221  and  _222
REMARK   94  A    between atoms: _225  and  _227
REMARK   95  A    between atoms: _227  and  _228
REMARK   96  A    between atoms: _227  and  _230
REMARK   97  A    between atoms: _230  and  _231
REMARK   98  A    between atoms: _234  and  _236
REMARK   99  A    between atoms: _236  and  _237
REMARK  100  A    between atoms: _236  and  _239
REMARK  101  A    between atoms: _239  and  _240
REMARK  102  A    between atoms: _242  and  _244
REMARK  103  A    between atoms: _244  and  _245
REMARK  104  A    between atoms: _244  and  _247
REMARK  105  A    between atoms: _249  and  _251
REMARK  106  A    between atoms: _251  and  _252
REMARK  107  A    between atoms: _251  and  _254
REMARK  108  A    between atoms: _254  and  _255
REMARK  109  A    between atoms: _257  and  _259
REMARK  110  A    between atoms: _259  and  _260
REMARK  111  A    between atoms: _259  and  _262
REMARK  112  A    between atoms: _262  and  _263
REMARK  113  A    between atoms: _265  and  _267
REMARK  114  A    between atoms: _267  and  _268
REMARK  115  A    between atoms: _267  and  _270
REMARK  116  A    between atoms: _270  and  _271
REMARK  117  A    between atoms: _276  and  _278
REMARK  118  A    between atoms: _278  and  _279
REMARK  119  A    between atoms: _278  and  _281
REMARK  120  A    between atoms: _281  and  _282
REMARK  121  A    between atoms: _287  and  _288
REMARK  122  A    between atoms: _290  and  _292
REMARK  123  A    between atoms: _292  and  _293
REMARK  124  A    between atoms: _292  and  _295
REMARK  125  A    between atoms: _295  and  _296
REMARK  126  A    between atoms: _299  and  _301
REMARK  127  A    between atoms: _301  and  _302
REMARK  128  A    between atoms: _301  and  _304
REMARK  129  A    between atoms: _304  and  _305
REMARK  130  A    between atoms: _308  and  _310
REMARK  131  A    between atoms: _310  and  _311
REMARK  132  A    between atoms: _310  and  _313
REMARK  133  A    between atoms: _313  and  _314
REMARK  134  A    between atoms: _314  and  _315
REMARK  135  A    between atoms: _315  and  _316
REMARK  136  A    between atoms: _326  and  _327
REMARK  137  A    between atoms: _332  and  _334
REMARK  138  A    between atoms: _334  and  _335
REMARK  139  A    between atoms: _334  and  _337
REMARK  140  A    between atoms: _337  and  _338
REMARK  141  A    between atoms: _338  and  _339
REMARK  142  A    between atoms: _339  and  _340
REMARK  143  A    between atoms: _349  and  _351
REMARK  144  A    between atoms: _351  and  _352
REMARK  145  A    between atoms: _351  and  _354
REMARK  146  A    between atoms: _354  and  _355
REMARK  147  A    between atoms: _355  and  _356
REMARK  148  A    between atoms: _359  and  _361
REMARK  149  A    between atoms: _361  and  _362
REMARK  150  A    between atoms: _361  and  _364
REMARK  151  A    between atoms: _364  and  _365
REMARK  152  A    between atoms: _368  and  _370
REMARK  153  A    between atoms: _370  and  _371
REMARK  154  A    between atoms: _370  and  _373
REMARK  155  A    between atoms: _373  and  _374
REMARK  156  A    between atoms: _379  and  _381
REMARK  157  A    between atoms: _381  and  _382
REMARK  158  A    between atoms: _381  and  _384
REMARK  159  A    between atoms: _384  and  _385
REMARK  160  A    between atoms: _387  and  _389
REMARK  161  A    between atoms: _389  and  _390
REMARK  162  A    between atoms: _389  and  _392
REMARK  163  A    between atoms: _392  and  _393
REMARK  164  A    between atoms: _403  and  _405
REMARK  165  A    between atoms: _405  and  _406
REMARK  166  A    between atoms: _405  and  _408
REMARK  167  A    between atoms: _408  and  _409
REMARK  168  A    between atoms: _412  and  _414
REMARK  169  A    between atoms: _414  and  _415
REMARK  170  A    between atoms: _417  and  _419
REMARK  171  A    between atoms: _419  and  _420
REMARK  172  A    between atoms: _419  and  _422
REMARK  173  A    between atoms: _422  and  _423
REMARK  174  A    between atoms: _428  and  _430
REMARK  175  A    between atoms: _430  and  _431
REMARK  176  A    between atoms: _430  and  _433
REMARK  177  A    between atoms: _433  and  _434
REMARK  178  A    between atoms: _437  and  _439
REMARK  179  A    between atoms: _439  and  _440
REMARK  180  A    between atoms: _439  and  _442
REMARK  181  A    between atoms: _442  and  _443
REMARK  182  A    between atoms: _446  and  _448
REMARK  183  A    between atoms: _448  and  _449
REMARK  184  A    between atoms: _448  and  _451
REMARK  185  A    between atoms: _451  and  _452
REMARK  186  A    between atoms: _452  and  _453
REMARK  187  A    between atoms: _455  and  _457
REMARK  188  A    between atoms: _457  and  _458
REMARK  189  A    between atoms: _457  and  _460
REMARK  190  A    between atoms: _460  and  _461
REMARK  191  A    between atoms: _466  and  _467
REMARK  192  A    between atoms: _469  and  _471
REMARK  193  A    between atoms: _471  and  _472
REMARK  194  A    between atoms: _476  and  _477
REMARK  195  A    between atoms: _482  and  _484
REMARK  196  A    between atoms: _484  and  _485
REMARK  197  A    between atoms: _484  and  _487
REMARK  198  A    between atoms: _487  and  _488
REMARK  199  A    between atoms: _491  and  _493
REMARK  200  A    between atoms: _493  and  _494
REMARK  201  A    between atoms: _493  and  _496
REMARK  202  A    between atoms: _496  and  _497
REMARK  203  A    between atoms: _507  and  _509
REMARK  204  A    between atoms: _509  and  _510
REMARK  205  A    between atoms: _509  and  _512
REMARK  206  A    between atoms: _514  and  _516
REMARK  207  A    between atoms: _516  and  _517
REMARK  208  A    between atoms: _516  and  _519
REMARK  209  A    between atoms: _519  and  _520
REMARK  210  A    between atoms: _520  and  _521
REMARK  211  A    between atoms: _526  and  _528
REMARK  212  A    between atoms: _528  and  _529
REMARK  213  A    between atoms: _528  and  _531
REMARK  214  A    between atoms: _531  and  _532
REMARK  215  A    between atoms: _535  and  _537
REMARK  216  A    between atoms: _537  and  _538
REMARK  217  A    between atoms: _537  and  _540
REMARK  218  A    between atoms: _540  and  _541
REMARK  219  A    between atoms: _546  and  _547
REMARK  220  A    between atoms: _549  and  _551
REMARK  221  A    between atoms: _551  and  _552
REMARK  222  A    between atoms: _554  and  _556
REMARK  223  A    between atoms: _556  and  _557
REMARK  224  A    between atoms: _560  and  _562
REMARK  225  A    between atoms: _562  and  _563
REMARK  226  A    between atoms: _562  and  _565
REMARK  227  A    between atoms: _567  and  _569
REMARK  228  A    between atoms: _569  and  _570
REMARK  229  A    between atoms: _569  and  _572
REMARK  230  A    between atoms: _572  and  _573
REMARK  231  A    between atoms: _578  and  _579
REMARK  232  A    between atoms: _581  and  _583
REMARK  233  A    between atoms: _583  and  _584
REMARK  234  A    between atoms: _583  and  _586
REMARK  235  A    between atoms: _586  and  _587
REMARK  236  A    between atoms: _590  and  _592
REMARK  237  A    between atoms: _592  and  _593
REMARK  238  A    between atoms: _592  and  _595
REMARK  239  A    between atoms: _595  and  _596
REMARK  240  A    between atoms: _601  and  _603
REMARK  241  A    between atoms: _603  and  _604
REMARK  242  A    between atoms: _603  and  _606
REMARK  243  A    between atoms: _606  and  _607
REMARK  244  A    between atoms: _617  and  _619
REMARK  245  A    between atoms: _619  and  _620
REMARK  246  A    between atoms: _619  and  _622
REMARK  247  A    between atoms: _622  and  _623
REMARK  248  A    between atoms: _629  and  _631
REMARK  249  A    between atoms: _631  and  _632
REMARK  250  A    between atoms: _635  and  _637
REMARK  251  A    between atoms: _637  and  _638
REMARK  252  A    between atoms: _640  and  _642
REMARK  253  A    between atoms: _642  and  _643
REMARK  254  A    between atoms: _642  and  _645
REMARK  255  A    between atoms: _645  and  _646
REMARK  256  A    between atoms: _651  and  _652
REMARK  257  A    between atoms: _654  and  _656
REMARK  258  A    between atoms: _656  and  _657
REMARK  259  A    between atoms: _656  and  _659
REMARK  260  A    between atoms: _659  and  _660
REMARK  261  A    between atoms: _662  and  _664
REMARK  262  A    between atoms: _664  and  _665
REMARK                            x       y       z     vdW  Elec       q    Type
REMARK                         _______ _______ _______ _____ _____    ______ ____
ROOT
ATOM      1  O   HOH     1     -19.463  -9.570  22.602  0.00  0.00    +0.000 OA
ENDROOT
TORSDOF 0
REMARK  Name = ../refined-set-2016/3hky/3hky_pocket.pdb
REMARK  262 active torsions:
REMARK  status: ('A' for Active; 'I' for Inactive)
REMARK    1  A    between atoms: _1  and  _3
REMARK    2  A    between atoms: _3  and  _4
REMARK    3  A    between atoms: _3  and  _6
REMARK    4  A    between atoms: _6  and  _7
REMARK    5  A    between atoms: _7  and  _8
REMARK    6  A    between atoms: _8  and  _9
REMARK    7  A    between atoms: _9  and  _10
REMARK    8  A    between atoms: _14  and  _16
REMARK    9  A    between atoms: _16  and  _17
REMARK   10  A    between atoms: _16  and  _19
REMARK   11  A    between atoms: _19  and  _20
REMARK   12  A    between atoms: _20  and  _21
REMARK   13  A    between atoms: _24  and  _26
REMARK   14  A    between atoms: _26  and  _27
REMARK   15  A    between atoms: _26  and  _29
REMARK   16  A    between atoms: _29  and  _30
REMARK   17  A    between atoms: _30  and  _31
REMARK   18  A    between atoms: _31  and  _32
REMARK   19  A    between atoms: _41  and  _43
REMARK   20  A    between atoms: _43  and  _44
REMARK   21  A    between atoms: _46  and  _48
REMARK   22  A    between atoms: _48  and  _49
REMARK   23  A    between atoms: _48  and  _51
REMARK   24  A    between atoms: _51  and  _52
REMARK   25  A    between atoms: _58  and  _60
REMARK   26  A    between atoms: _60  and  _61
REMARK   27  A    between atoms: _60  and  _63
REMARK   28  A    between atoms: _63  and  _64
REMARK   29  A    between atoms: _69  and  _70
REMARK   30  A    between atoms: _72  and  _74
REMARK   31  A    between atoms: _74  and  _75
REMARK   32  A    between atoms: _74  and  _77
REMARK   33  A    between atoms: _77  and  _78
REMARK   34  A    between atoms: _81  and  _82
REMARK   35  A    between atoms: _87  and  _89
REMARK   36  A    between atoms: _89  and  _90
REMARK   37  A    between atoms: _89  and  _92
REMARK   38  A    between atoms: _92  and  _93
REMARK   39  A    between atoms: _93  and  _94
REMARK   40  A    between atoms: _94  and  _95
REMARK   41  A    between atoms: _95  and  _96
REMARK   42  A    between atoms: _100  and  _102
REMARK   43  A    between atoms: _102  and  _103
REMARK   44  A    between atoms: _102  and  _105
REMARK   45  A    between atoms: _105  and  _106
REMARK   46  A    between atoms: _106  and  _107
REMARK   47  A    between atoms: _112  and  _114
REMARK   48  A    between atoms: _114  and  _115
REMARK   49  A    between atoms: _114  and  _117
REMARK   50  A    between atoms: _117  and  _118
REMARK   51  A    between atoms: _118  and  _119
REMARK   52  A    between atoms: _119  and  _120
REMARK   53  A    between atoms: _129  and  _131
REMARK   54  A    between atoms: _131  and  _132
REMARK   55  A    between atoms: _131  and  _134
REMARK   56  A    between atoms: _137  and  _139
REMARK   57  A    between atoms: _139  and  _140
REMARK   58  A    between atoms: _139  and  _142
REMARK   59  A    between atoms: _142  and  _143
REMARK   60  A    between atoms: _146  and  _148
REMARK   61  A    between atoms: _148  and  _149
REMARK   62  A    between atoms: _148  and  _151
REMARK   63  A    between atoms: _151  and  _152
REMARK   64  A    between atoms: _155  and  _157
REMARK   65  A    between atoms: _157  and  _158
REMARK   66  A    between atoms: _157  and  _160
REMARK   67  A    between atoms: _160  and  _161
REMARK   68  A    between atoms: _163  and  _165
REMARK   69  A    between atoms: _165  and  _166
REMARK   70  A    between atoms: _165  and  _168
REMARK   71  A    between atoms: _168  and  _169
REMARK   72  A    between atoms: _172  and  _174
REMARK   73  A    between atoms: _174  and  _175
REMARK   74  A    between atoms: _174  and  _177
REMARK   75  A    between atoms: _177  and  _178
REMARK   76  A    between atoms: _180  and  _182
REMARK   77  A    between atoms: _182  and  _183
REMARK   78  A    between atoms: _182  and  _185
REMARK   79  A    between atoms: _185  and  _186
REMARK   80  A    between atoms: _191  and  _193
REMARK   81  A    between atoms: _193  and  _194
REMARK   82  A    between atoms: _193  and  _196
REMARK   83  A    between atoms: _196  and  _197
REMARK   84  A    between atoms: _200  and  _202
REMARK   85  A    between atoms: _202  and  _203
REMARK   86  A    between atoms: _202  and  _205
REMARK   87  A    between atoms: _205  and  _206
REMARK   88  A    between atoms: _211  and  _213
REMARK   89  A    between atoms: _213  and  _214
REMARK   90  A    between atoms: _216  and  _218
REMARK   91  A    between atoms: _218  and  _219
REMARK   92  A    between atoms: _218  and  _221
REMARK   93  A    between atoms: _221  and  _222
REMARK   94  A    between atoms: _225  and  _227
REMARK   95  A    between atoms: _227  and  _228
REMARK   96  A    between atoms: _227  and  _230
REMARK   97  A    between atoms: _230  and  _231
REMARK   98  A    between atoms: _234  and  _236
REMARK   99  A    between atoms: _236  and  _237
REMARK  100  A    between atoms: _236  and  _239
REMARK  101  A    between atoms: _239  and  _240
REMARK  102  A    between atoms: _242  and  _244
REMARK  103  A    between atoms: _244  and  _245
REMARK  104  A    between atoms: _244  and  _247
REMARK  105  A    between atoms: _249  and  _251
REMARK  106  A    between atoms: _251  and  _252
REMARK  107  A    between atoms: _251  and  _254
REMARK  108  A    between atoms: _254  and  _255
REMARK  109  A    between atoms: _257  and  _259
REMARK  110  A    between atoms: _259  and  _260
REMARK  111  A    between atoms: _259  and  _262
REMARK  112  A    between atoms: _262  and  _263
REMARK  113  A    between atoms: _265  and  _267
REMARK  114  A    between atoms: _267  and  _268
REMARK  115  A    between atoms: _267  and  _270
REMARK  116  A    between atoms: _270  and  _271
REMARK  117  A    between atoms: _276  and  _278
REMARK  118  A    between atoms: _278  and  _279
REMARK  119  A    between atoms: _278  and  _281
REMARK  120  A    between atoms: _281  and  _282
REMARK  121  A    between atoms: _287  and  _288
REMARK  122  A    between atoms: _290  and  _292
REMARK  123  A    between atoms: _292  and  _293
REMARK  124  A    between atoms: _292  and  _295
REMARK  125  A    between atoms: _295  and  _296
REMARK  126  A    between atoms: _299  and  _301
REMARK  127  A    between atoms: _301  and  _302
REMARK  128  A    between atoms: _301  and  _304
REMARK  129  A    between atoms: _304  and  _305
REMARK  130  A    between atoms: _308  and  _310
REMARK  131  A    between atoms: _310  and  _311
REMARK  132  A    between atoms: _310  and  _313
REMARK  133  A    between atoms: _313  and  _314
REMARK  134  A    between atoms: _314  and  _315
REMARK  135  A    between atoms: _315  and  _316
REMARK  136  A    between atoms: _326  and  _327
REMARK  137  A    between atoms: _332  and  _334
REMARK  138  A    between atoms: _334  and  _335
REMARK  139  A    between atoms: _334  and  _337
REMARK  140  A    between atoms: _337  and  _338
REMARK  141  A    between atoms: _338  and  _339
REMARK  142  A    between atoms: _339  and  _340
REMARK  143  A    between atoms: _349  and  _351
REMARK  144  A    between atoms: _351  and  _352
REMARK  145  A    between atoms: _351  and  _354
REMARK  146  A    between atoms: _354  and  _355
REMARK  147  A    between atoms: _355  and  _356
REMARK  148  A    between atoms: _359  and  _361
REMARK  149  A    between atoms: _361  and  _362
REMARK  150  A    between atoms: _361  and  _364
REMARK  151  A    between atoms: _364  and  _365
REMARK  152  A    between atoms: _368  and  _370
REMARK  153  A    between atoms: _370  and  _371
REMARK  154  A    between atoms: _370  and  _373
REMARK  155  A    between atoms: _373  and  _374
REMARK  156  A    between atoms: _379  and  _381
REMARK  157  A    between atoms: _381  and  _382
REMARK  158  A    between atoms: _381  and  _384
REMARK  159  A    between atoms: _384  and  _385
REMARK  160  A    between atoms: _387  and  _389
REMARK  161  A    between atoms: _389  and  _390
REMARK  162  A    between atoms: _389  and  _392
REMARK  163  A    between atoms: _392  and  _393
REMARK  164  A    between atoms: _403  and  _405
REMARK  165  A    between atoms: _405  and  _406
REMARK  166  A    between atoms: _405  and  _408
REMARK  167  A    between atoms: _408  and  _409
REMARK  168  A    between atoms: _412  and  _414
REMARK  169  A    between atoms: _414  and  _415
REMARK  170  A    between atoms: _417  and  _419
REMARK  171  A    between atoms: _419  and  _420
REMARK  172  A    between atoms: _419  and  _422
REMARK  173  A    between atoms: _422  and  _423
REMARK  174  A    between atoms: _428  and  _430
REMARK  175  A    between atoms: _430  and  _431
REMARK  176  A    between atoms: _430  and  _433
REMARK  177  A    between atoms: _433  and  _434
REMARK  178  A    between atoms: _437  and  _439
REMARK  179  A    between atoms: _439  and  _440
REMARK  180  A    between atoms: _439  and  _442
REMARK  181  A    between atoms: _442  and  _443
REMARK  182  A    between atoms: _446  and  _448
REMARK  183  A    between atoms: _448  and  _449
REMARK  184  A    between atoms: _448  and  _451
REMARK  185  A    between atoms: _451  and  _452
REMARK  186  A    between atoms: _452  and  _453
REMARK  187  A    between atoms: _455  and  _457
REMARK  188  A    between atoms: _457  and  _458
REMARK  189  A    between atoms: _457  and  _460
REMARK  190  A    between atoms: _460  and  _461
REMARK  191  A    between atoms: _466  and  _467
REMARK  192  A    between atoms: _469  and  _471
REMARK  193  A    between atoms: _471  and  _472
REMARK  194  A    between atoms: _476  and  _477
REMARK  195  A    between atoms: _482  and  _484
REMARK  196  A    between atoms: _484  and  _485
REMARK  197  A    between atoms: _484  and  _487
REMARK  198  A    between atoms: _487  and  _488
REMARK  199  A    between atoms: _491  and  _493
REMARK  200  A    between atoms: _493  and  _494
REMARK  201  A    between atoms: _493  and  _496
REMARK  202  A    between atoms: _496  and  _497
REMARK  203  A    between atoms: _507  and  _509
REMARK  204  A    between atoms: _509  and  _510
REMARK  205  A    between atoms: _509  and  _512
REMARK  206  A    between atoms: _514  and  _516
REMARK  207  A    between atoms: _516  and  _517
REMARK  208  A    between atoms: _516  and  _519
REMARK  209  A    between atoms: _519  and  _520
REMARK  210  A    between atoms: _520  and  _521
REMARK  211  A    between atoms: _526  and  _528
REMARK  212  A    between atoms: _528  and  _529
REMARK  213  A    between atoms: _528  and  _531
REMARK  214  A    between atoms: _531  and  _532
REMARK  215  A    between atoms: _535  and  _537
REMARK  216  A    between atoms: _537  and  _538
REMARK  217  A    between atoms: _537  and  _540
REMARK  218  A    between atoms: _540  and  _541
REMARK  219  A    between atoms: _546  and  _547
REMARK  220  A    between atoms: _549  and  _551
REMARK  221  A    between atoms: _551  and  _552
REMARK  222  A    between atoms: _554  and  _556
REMARK  223  A    between atoms: _556  and  _557
REMARK  224  A    between atoms: _560  and  _562
REMARK  225  A    between atoms: _562  and  _563
REMARK  226  A    between atoms: _562  and  _565
REMARK  227  A    between atoms: _567  and  _569
REMARK  228  A    between atoms: _569  and  _570
REMARK  229  A    between atoms: _569  and  _572
REMARK  230  A    between atoms: _572  and  _573
REMARK  231  A    between atoms: _578  and  _579
REMARK  232  A    between atoms: _581  and  _583
REMARK  233  A    between atoms: _583  and  _584
REMARK  234  A    between atoms: _583  and  _586
REMARK  235  A    between atoms: _586  and  _587
REMARK  236  A    between atoms: _590  and  _592
REMARK  237  A    between atoms: _592  and  _593
REMARK  238  A    between atoms: _592  and  _595
REMARK  239  A    between atoms: _595  and  _596
REMARK  240  A    between atoms: _601  and  _603
REMARK  241  A    between atoms: _603  and  _604
REMARK  242  A    between atoms: _603  and  _606
REMARK  243  A    between atoms: _606  and  _607
REMARK  244  A    between atoms: _617  and  _619
REMARK  245  A    between atoms: _619  and  _620
REMARK  246  A    between atoms: _619  and  _622
REMARK  247  A    between atoms: _622  and  _623
REMARK  248  A    between atoms: _629  and  _631
REMARK  249  A    between atoms: _631  and  _632
REMARK  250  A    between atoms: _635  and  _637
REMARK  251  A    between atoms: _637  and  _638
REMARK  252  A    between atoms: _640  and  _642
REMARK  253  A    between atoms: _642  and  _643
REMARK  254  A    between atoms: _642  and  _645
REMARK  255  A    between atoms: _645  and  _646
REMARK  256  A    between atoms: _651  and  _652
REMARK  257  A    between atoms: _654  and  _656
REMARK  258  A    between atoms: _656  and  _657
REMARK  259  A    between atoms: _656  and  _659
REMARK  260  A    between atoms: _659  and  _660
REMARK  261  A    between atoms: _662  and  _664
REMARK  262  A    between atoms: _664  and  _665
REMARK                            x       y       z     vdW  Elec       q    Type
REMARK                         _______ _______ _______ _____ _____    ______ ____
ROOT
ATOM      1  O   HOH     1     -26.654  -3.891  23.967  0.00  0.00    +0.000 OA
ENDROOT
TORSDOF 0
REMARK  Name = ../refined-set-2016/3hky/3hky_pocket.pdb
REMARK  262 active torsions:
REMARK  status: ('A' for Active; 'I' for Inactive)
REMARK    1  A    between atoms: _1  and  _3
REMARK    2  A    between atoms: _3  and  _4
REMARK    3  A    between atoms: _3  and  _6
REMARK    4  A    between atoms: _6  and  _7
REMARK    5  A    between atoms: _7  and  _8
REMARK    6  A    between atoms: _8  and  _9
REMARK    7  A    between atoms: _9  and  _10
REMARK    8  A    between atoms: _14  and  _16
REMARK    9  A    between atoms: _16  and  _17
REMARK   10  A    between atoms: _16  and  _19
REMARK   11  A    between atoms: _19  and  _20
REMARK   12  A    between atoms: _20  and  _21
REMARK   13  A    between atoms: _24  and  _26
REMARK   14  A    between atoms: _26  and  _27
REMARK   15  A    between atoms: _26  and  _29
REMARK   16  A    between atoms: _29  and  _30
REMARK   17  A    between atoms: _30  and  _31
REMARK   18  A    between atoms: _31  and  _32
REMARK   19  A    between atoms: _41  and  _43
REMARK   20  A    between atoms: _43  and  _44
REMARK   21  A    between atoms: _46  and  _48
REMARK   22  A    between atoms: _48  and  _49
REMARK   23  A    between atoms: _48  and  _51
REMARK   24  A    between atoms: _51  and  _52
REMARK   25  A    between atoms: _58  and  _60
REMARK   26  A    between atoms: _60  and  _61
REMARK   27  A    between atoms: _60  and  _63
REMARK   28  A    between atoms: _63  and  _64
REMARK   29  A    between atoms: _69  and  _70
REMARK   30  A    between atoms: _72  and  _74
REMARK   31  A    between atoms: _74  and  _75
REMARK   32  A    between atoms: _74  and  _77
REMARK   33  A    between atoms: _77  and  _78
REMARK   34  A    between atoms: _81  and  _82
REMARK   35  A    between atoms: _87  and  _89
REMARK   36  A    between atoms: _89  and  _90
REMARK   37  A    between atoms: _89  and  _92
REMARK   38  A    between atoms: _92  and  _93
REMARK   39  A    between atoms: _93  and  _94
REMARK   40  A    between atoms: _94  and  _95
REMARK   41  A    between atoms: _95  and  _96
REMARK   42  A    between atoms: _100  and  _102
REMARK   43  A    between atoms: _102  and  _103
REMARK   44  A    between atoms: _102  and  _105
REMARK   45  A    between atoms: _105  and  _106
REMARK   46  A    between atoms: _106  and  _107
REMARK   47  A    between atoms: _112  and  _114
REMARK   48  A    between atoms: _114  and  _115
REMARK   49  A    between atoms: _114  and  _117
REMARK   50  A    between atoms: _117  and  _118
REMARK   51  A    between atoms: _118  and  _119
REMARK   52  A    between atoms: _119  and  _120
REMARK   53  A    between atoms: _129  and  _131
REMARK   54  A    between atoms: _131  and  _132
REMARK   55  A    between atoms: _131  and  _134
REMARK   56  A    between atoms: _137  and  _139
REMARK   57  A    between atoms: _139  and  _140
REMARK   58  A    between atoms: _139  and  _142
REMARK   59  A    between atoms: _142  and  _143
REMARK   60  A    between atoms: _146  and  _148
REMARK   61  A    between atoms: _148  and  _149
REMARK   62  A    between atoms: _148  and  _151
REMARK   63  A    between atoms: _151  and  _152
REMARK   64  A    between atoms: _155  and  _157
REMARK   65  A    between atoms: _157  and  _158
REMARK   66  A    between atoms: _157  and  _160
REMARK   67  A    between atoms: _160  and  _161
REMARK   68  A    between atoms: _163  and  _165
REMARK   69  A    between atoms: _165  and  _166
REMARK   70  A    between atoms: _165  and  _168
REMARK   71  A    between atoms: _168  and  _169
REMARK   72  A    between atoms: _172  and  _174
REMARK   73  A    between atoms: _174  and  _175
REMARK   74  A    between atoms: _174  and  _177
REMARK   75  A    between atoms: _177  and  _178
REMARK   76  A    between atoms: _180  and  _182
REMARK   77  A    between atoms: _182  and  _183
REMARK   78  A    between atoms: _182  and  _185
REMARK   79  A    between atoms: _185  and  _186
REMARK   80  A    between atoms: _191  and  _193
REMARK   81  A    between atoms: _193  and  _194
REMARK   82  A    between atoms: _193  and  _196
REMARK   83  A    between atoms: _196  and  _197
REMARK   84  A    between atoms: _200  and  _202
REMARK   85  A    between atoms: _202  and  _203
REMARK   86  A    between atoms: _202  and  _205
REMARK   87  A    between atoms: _205  and  _206
REMARK   88  A    between atoms: _211  and  _213
REMARK   89  A    between atoms: _213  and  _214
REMARK   90  A    between atoms: _216  and  _218
REMARK   91  A    between atoms: _218  and  _219
REMARK   92  A    between atoms: _218  and  _221
REMARK   93  A    between atoms: _221  and  _222
REMARK   94  A    between atoms: _225  and  _227
REMARK   95  A    between atoms: _227  and  _228
REMARK   96  A    between atoms: _227  and  _230
REMARK   97  A    between atoms: _230  and  _231
REMARK   98  A    between atoms: _234  and  _236
REMARK   99  A    between atoms: _236  and  _237
REMARK  100  A    between atoms: _236  and  _239
REMARK  101  A    between atoms: _239  and  _240
REMARK  102  A    between atoms: _242  and  _244
REMARK  103  A    between atoms: _244  and  _245
REMARK  104  A    between atoms: _244  and  _247
REMARK  105  A    between atoms: _249  and  _251
REMARK  106  A    between atoms: _251  and  _252
REMARK  107  A    between atoms: _251  and  _254
REMARK  108  A    between atoms: _254  and  _255
REMARK  109  A    between atoms: _257  and  _259
REMARK  110  A    between atoms: _259  and  _260
REMARK  111  A    between atoms: _259  and  _262
REMARK  112  A    between atoms: _262  and  _263
REMARK  113  A    between atoms: _265  and  _267
REMARK  114  A    between atoms: _267  and  _268
REMARK  115  A    between atoms: _267  and  _270
REMARK  116  A    between atoms: _270  and  _271
REMARK  117  A    between atoms: _276  and  _278
REMARK  118  A    between atoms: _278  and  _279
REMARK  119  A    between atoms: _278  and  _281
REMARK  120  A    between atoms: _281  and  _282
REMARK  121  A    between atoms: _287  and  _288
REMARK  122  A    between atoms: _290  and  _292
REMARK  123  A    between atoms: _292  and  _293
REMARK  124  A    between atoms: _292  and  _295
REMARK  125  A    between atoms: _295  and  _296
REMARK  126  A    between atoms: _299  and  _301
REMARK  127  A    between atoms: _301  and  _302
REMARK  128  A    between atoms: _301  and  _304
REMARK  129  A    between atoms: _304  and  _305
REMARK  130  A    between atoms: _308  and  _310
REMARK  131  A    between atoms: _310  and  _311
REMARK  132  A    between atoms: _310  and  _313
REMARK  133  A    between atoms: _313  and  _314
REMARK  134  A    between atoms: _314  and  _315
REMARK  135  A    between atoms: _315  and  _316
REMARK  136  A    between atoms: _326  and  _327
REMARK  137  A    between atoms: _332  and  _334
REMARK  138  A    between atoms: _334  and  _335
REMARK  139  A    between atoms: _334  and  _337
REMARK  140  A    between atoms: _337  and  _338
REMARK  141  A    between atoms: _338  and  _339
REMARK  142  A    between atoms: _339  and  _340
REMARK  143  A    between atoms: _349  and  _351
REMARK  144  A    between atoms: _351  and  _352
REMARK  145  A    between atoms: _351  and  _354
REMARK  146  A    between atoms: _354  and  _355
REMARK  147  A    between atoms: _355  and  _356
REMARK  148  A    between atoms: _359  and  _361
REMARK  149  A    between atoms: _361  and  _362
REMARK  150  A    between atoms: _361  and  _364
REMARK  151  A    between atoms: _364  and  _365
REMARK  152  A    between atoms: _368  and  _370
REMARK  153  A    between atoms: _370  and  _371
REMARK  154  A    between atoms: _370  and  _373
REMARK  155  A    between atoms: _373  and  _374
REMARK  156  A    between atoms: _379  and  _381
REMARK  157  A    between atoms: _381  and  _382
REMARK  158  A    between atoms: _381  and  _384
REMARK  159  A    between atoms: _384  and  _385
REMARK  160  A    between atoms: _387  and  _389
REMARK  161  A    between atoms: _389  and  _390
REMARK  162  A    between atoms: _389  and  _392
REMARK  163  A    between atoms: _392  and  _393
REMARK  164  A    between atoms: _403  and  _405
REMARK  165  A    between atoms: _405  and  _406
REMARK  166  A    between atoms: _405  and  _408
REMARK  167  A    between atoms: _408  and  _409
REMARK  168  A    between atoms: _412  and  _414
REMARK  169  A    between atoms: _414  and  _415
REMARK  170  A    between atoms: _417  and  _419
REMARK  171  A    between atoms: _419  and  _420
REMARK  172  A    between atoms: _419  and  _422
REMARK  173  A    between atoms: _422  and  _423
REMARK  174  A    between atoms: _428  and  _430
REMARK  175  A    between atoms: _430  and  _431
REMARK  176  A    between atoms: _430  and  _433
REMARK  177  A    between atoms: _433  and  _434
REMARK  178  A    between atoms: _437  and  _439
REMARK  179  A    between atoms: _439  and  _440
REMARK  180  A    between atoms: _439  and  _442
REMARK  181  A    between atoms: _442  and  _443
REMARK  182  A    between atoms: _446  and  _448
REMARK  183  A    between atoms: _448  and  _449
REMARK  184  A    between atoms: _448  and  _451
REMARK  185  A    between atoms: _451  and  _452
REMARK  186  A    between atoms: _452  and  _453
REMARK  187  A    between atoms: _455  and  _457
REMARK  188  A    between atoms: _457  and  _458
REMARK  189  A    between atoms: _457  and  _460
REMARK  190  A    between atoms: _460  and  _461
REMARK  191  A    between atoms: _466  and  _467
REMARK  192  A    between atoms: _469  and  _471
REMARK  193  A    between atoms: _471  and  _472
REMARK  194  A    between atoms: _476  and  _477
REMARK  195  A    between atoms: _482  and  _484
REMARK  196  A    between atoms: _484  and  _485
REMARK  197  A    between atoms: _484  and  _487
REMARK  198  A    between atoms: _487  and  _488
REMARK  199  A    between atoms: _491  and  _493
REMARK  200  A    between atoms: _493  and  _494
REMARK  201  A    between atoms: _493  and  _496
REMARK  202  A    between atoms: _496  and  _497
REMARK  203  A    between atoms: _507  and  _509
REMARK  204  A    between atoms: _509  and  _510
REMARK  205  A    between atoms: _509  and  _512
REMARK  206  A    between atoms: _514  and  _516
REMARK  207  A    between atoms: _516  and  _517
REMARK  208  A    between atoms: _516  and  _519
REMARK  209  A    between atoms: _519  and  _520
REMARK  210  A    between atoms: _520  and  _521
REMARK  211  A    between atoms: _526  and  _528
REMARK  212  A    between atoms: _528  and  _529
REMARK  213  A    between atoms: _528  and  _531
REMARK  214  A    between atoms: _531  and  _532
REMARK  215  A    between atoms: _535  and  _537
REMARK  216  A    between atoms: _537  and  _538
REMARK  217  A    between atoms: _537  and  _540
REMARK  218  A    between atoms: _540  and  _541
REMARK  219  A    between atoms: _546  and  _547
REMARK  220  A    between atoms: _549  and  _551
REMARK  221  A    between atoms: _551  and  _552
REMARK  222  A    between atoms: _554  and  _556
REMARK  223  A    between atoms: _556  and  _557
REMARK  224  A    between atoms: _560  and  _562
REMARK  225  A    between atoms: _562  and  _563
REMARK  226  A    between atoms: _562  and  _565
REMARK  227  A    between atoms: _567  and  _569
REMARK  228  A    between atoms: _569  and  _570
REMARK  229  A    between atoms: _569  and  _572
REMARK  230  A    between atoms: _572  and  _573
REMARK  231  A    between atoms: _578  and  _579
REMARK  232  A    between atoms: _581  and  _583
REMARK  233  A    between atoms: _583  and  _584
REMARK  234  A    between atoms: _583  and  _586
REMARK  235  A    between atoms: _586  and  _587
REMARK  236  A    between atoms: _590  and  _592
REMARK  237  A    between atoms: _592  and  _593
REMARK  238  A    between atoms: _592  and  _595
REMARK  239  A    between atoms: _595  and  _596
REMARK  240  A    between atoms: _601  and  _603
REMARK  241  A    between atoms: _603  and  _604
REMARK  242  A    between atoms: _603  and  _606
REMARK  243  A    between atoms: _606  and  _607
REMARK  244  A    between atoms: _617  and  _619
REMARK  245  A    between atoms: _619  and  _620
REMARK  246  A    between atoms: _619  and  _622
REMARK  247  A    between atoms: _622  and  _623
REMARK  248  A    between atoms: _629  and  _631
REMARK  249  A    between atoms: _631  and  _632
REMARK  250  A    between atoms: _635  and  _637
REMARK  251  A    between atoms: _637  and  _638
REMARK  252  A    between atoms: _640  and  _642
REMARK  253  A    between atoms: _642  and  _643
REMARK  254  A    between atoms: _642  and  _645
REMARK  255  A    between atoms: _645  and  _646
REMARK  256  A    between atoms: _651  and  _652
REMARK  257  A    between atoms: _654  and  _656
REMARK  258  A    between atoms: _656  and  _657
REMARK  259  A    between atoms: _656  and  _659
REMARK  260  A    between atoms: _659  and  _660
REMARK  261  A    between atoms: _662  and  _664
REMARK  262  A    between atoms: _664  and  _665
REMARK                            x       y       z     vdW  Elec       q    Type
REMARK                         _______ _______ _______ _____ _____    ______ ____
ROOT
ATOM      1  O   HOH     1     -19.994  -5.346  26.134  0.00  0.00    +0.000 OA
ENDROOT
TORSDOF 0
REMARK  Name = ../refined-set-2016/3hky/3hky_pocket.pdb
REMARK  262 active torsions:
REMARK  status: ('A' for Active; 'I' for Inactive)
REMARK    1  A    between atoms: _1  and  _3
REMARK    2  A    between atoms: _3  and  _4
REMARK    3  A    between atoms: _3  and  _6
REMARK    4  A    between atoms: _6  and  _7
REMARK    5  A    between atoms: _7  and  _8
REMARK    6  A    between atoms: _8  and  _9
REMARK    7  A    between atoms: _9  and  _10
REMARK    8  A    between atoms: _14  and  _16
REMARK    9  A    between atoms: _16  and  _17
REMARK   10  A    between atoms: _16  and  _19
REMARK   11  A    between atoms: _19  and  _20
REMARK   12  A    between atoms: _20  and  _21
REMARK   13  A    between atoms: _24  and  _26
REMARK   14  A    between atoms: _26  and  _27
REMARK   15  A    between atoms: _26  and  _29
REMARK   16  A    between atoms: _29  and  _30
REMARK   17  A    between atoms: _30  and  _31
REMARK   18  A    between atoms: _31  and  _32
REMARK   19  A    between atoms: _41  and  _43
REMARK   20  A    between atoms: _43  and  _44
REMARK   21  A    between atoms: _46  and  _48
REMARK   22  A    between atoms: _48  and  _49
REMARK   23  A    between atoms: _48  and  _51
REMARK   24  A    between atoms: _51  and  _52
REMARK   25  A    between atoms: _58  and  _60
REMARK   26  A    between atoms: _60  and  _61
REMARK   27  A    between atoms: _60  and  _63
REMARK   28  A    between atoms: _63  and  _64
REMARK   29  A    between atoms: _69  and  _70
REMARK   30  A    between atoms: _72  and  _74
REMARK   31  A    between atoms: _74  and  _75
REMARK   32  A    between atoms: _74  and  _77
REMARK   33  A    between atoms: _77  and  _78
REMARK   34  A    between atoms: _81  and  _82
REMARK   35  A    between atoms: _87  and  _89
REMARK   36  A    between atoms: _89  and  _90
REMARK   37  A    between atoms: _89  and  _92
REMARK   38  A    between atoms: _92  and  _93
REMARK   39  A    between atoms: _93  and  _94
REMARK   40  A    between atoms: _94  and  _95
REMARK   41  A    between atoms: _95  and  _96
REMARK   42  A    between atoms: _100  and  _102
REMARK   43  A    between atoms: _102  and  _103
REMARK   44  A    between atoms: _102  and  _105
REMARK   45  A    between atoms: _105  and  _106
REMARK   46  A    between atoms: _106  and  _107
REMARK   47  A    between atoms: _112  and  _114
REMARK   48  A    between atoms: _114  and  _115
REMARK   49  A    between atoms: _114  and  _117
REMARK   50  A    between atoms: _117  and  _118
REMARK   51  A    between atoms: _118  and  _119
REMARK   52  A    between atoms: _119  and  _120
REMARK   53  A    between atoms: _129  and  _131
REMARK   54  A    between atoms: _131  and  _132
REMARK   55  A    between atoms: _131  and  _134
REMARK   56  A    between atoms: _137  and  _139
REMARK   57  A    between atoms: _139  and  _140
REMARK   58  A    between atoms: _139  and  _142
REMARK   59  A    between atoms: _142  and  _143
REMARK   60  A    between atoms: _146  and  _148
REMARK   61  A    between atoms: _148  and  _149
REMARK   62  A    between atoms: _148  and  _151
REMARK   63  A    between atoms: _151  and  _152
REMARK   64  A    between atoms: _155  and  _157
REMARK   65  A    between atoms: _157  and  _158
REMARK   66  A    between atoms: _157  and  _160
REMARK   67  A    between atoms: _160  and  _161
REMARK   68  A    between atoms: _163  and  _165
REMARK   69  A    between atoms: _165  and  _166
REMARK   70  A    between atoms: _165  and  _168
REMARK   71  A    between atoms: _168  and  _169
REMARK   72  A    between atoms: _172  and  _174
REMARK   73  A    between atoms: _174  and  _175
REMARK   74  A    between atoms: _174  and  _177
REMARK   75  A    between atoms: _177  and  _178
REMARK   76  A    between atoms: _180  and  _182
REMARK   77  A    between atoms: _182  and  _183
REMARK   78  A    between atoms: _182  and  _185
REMARK   79  A    between atoms: _185  and  _186
REMARK   80  A    between atoms: _191  and  _193
REMARK   81  A    between atoms: _193  and  _194
REMARK   82  A    between atoms: _193  and  _196
REMARK   83  A    between atoms: _196  and  _197
REMARK   84  A    between atoms: _200  and  _202
REMARK   85  A    between atoms: _202  and  _203
REMARK   86  A    between atoms: _202  and  _205
REMARK   87  A    between atoms: _205  and  _206
REMARK   88  A    between atoms: _211  and  _213
REMARK   89  A    between atoms: _213  and  _214
REMARK   90  A    between atoms: _216  and  _218
REMARK   91  A    between atoms: _218  and  _219
REMARK   92  A    between atoms: _218  and  _221
REMARK   93  A    between atoms: _221  and  _222
REMARK   94  A    between atoms: _225  and  _227
REMARK   95  A    between atoms: _227  and  _228
REMARK   96  A    between atoms: _227  and  _230
REMARK   97  A    between atoms: _230  and  _231
REMARK   98  A    between atoms: _234  and  _236
REMARK   99  A    between atoms: _236  and  _237
REMARK  100  A    between atoms: _236  and  _239
REMARK  101  A    between atoms: _239  and  _240
REMARK  102  A    between atoms: _242  and  _244
REMARK  103  A    between atoms: _244  and  _245
REMARK  104  A    between atoms: _244  and  _247
REMARK  105  A    between atoms: _249  and  _251
REMARK  106  A    between atoms: _251  and  _252
REMARK  107  A    between atoms: _251  and  _254
REMARK  108  A    between atoms: _254  and  _255
REMARK  109  A    between atoms: _257  and  _259
REMARK  110  A    between atoms: _259  and  _260
REMARK  111  A    between atoms: _259  and  _262
REMARK  112  A    between atoms: _262  and  _263
REMARK  113  A    between atoms: _265  and  _267
REMARK  114  A    between atoms: _267  and  _268
REMARK  115  A    between atoms: _267  and  _270
REMARK  116  A    between atoms: _270  and  _271
REMARK  117  A    between atoms: _276  and  _278
REMARK  118  A    between atoms: _278  and  _279
REMARK  119  A    between atoms: _278  and  _281
REMARK  120  A    between atoms: _281  and  _282
REMARK  121  A    between atoms: _287  and  _288
REMARK  122  A    between atoms: _290  and  _292
REMARK  123  A    between atoms: _292  and  _293
REMARK  124  A    between atoms: _292  and  _295
REMARK  125  A    between atoms: _295  and  _296
REMARK  126  A    between atoms: _299  and  _301
REMARK  127  A    between atoms: _301  and  _302
REMARK  128  A    between atoms: _301  and  _304
REMARK  129  A    between atoms: _304  and  _305
REMARK  130  A    between atoms: _308  and  _310
REMARK  131  A    between atoms: _310  and  _311
REMARK  132  A    between atoms: _310  and  _313
REMARK  133  A    between atoms: _313  and  _314
REMARK  134  A    between atoms: _314  and  _315
REMARK  135  A    between atoms: _315  and  _316
REMARK  136  A    between atoms: _326  and  _327
REMARK  137  A    between atoms: _332  and  _334
REMARK  138  A    between atoms: _334  and  _335
REMARK  139  A    between atoms: _334  and  _337
REMARK  140  A    between atoms: _337  and  _338
REMARK  141  A    between atoms: _338  and  _339
REMARK  142  A    between atoms: _339  and  _340
REMARK  143  A    between atoms: _349  and  _351
REMARK  144  A    between atoms: _351  and  _352
REMARK  145  A    between atoms: _351  and  _354
REMARK  146  A    between atoms: _354  and  _355
REMARK  147  A    between atoms: _355  and  _356
REMARK  148  A    between atoms: _359  and  _361
REMARK  149  A    between atoms: _361  and  _362
REMARK  150  A    between atoms: _361  and  _364
REMARK  151  A    between atoms: _364  and  _365
REMARK  152  A    between atoms: _368  and  _370
REMARK  153  A    between atoms: _370  and  _371
REMARK  154  A    between atoms: _370  and  _373
REMARK  155  A    between atoms: _373  and  _374
REMARK  156  A    between atoms: _379  and  _381
REMARK  157  A    between atoms: _381  and  _382
REMARK  158  A    between atoms: _381  and  _384
REMARK  159  A    between atoms: _384  and  _385
REMARK  160  A    between atoms: _387  and  _389
REMARK  161  A    between atoms: _389  and  _390
REMARK  162  A    between atoms: _389  and  _392
REMARK  163  A    between atoms: _392  and  _393
REMARK  164  A    between atoms: _403  and  _405
REMARK  165  A    between atoms: _405  and  _406
REMARK  166  A    between atoms: _405  and  _408
REMARK  167  A    between atoms: _408  and  _409
REMARK  168  A    between atoms: _412  and  _414
REMARK  169  A    between atoms: _414  and  _415
REMARK  170  A    between atoms: _417  and  _419
REMARK  171  A    between atoms: _419  and  _420
REMARK  172  A    between atoms: _419  and  _422
REMARK  173  A    between atoms: _422  and  _423
REMARK  174  A    between atoms: _428  and  _430
REMARK  175  A    between atoms: _430  and  _431
REMARK  176  A    between atoms: _430  and  _433
REMARK  177  A    between atoms: _433  and  _434
REMARK  178  A    between atoms: _437  and  _439
REMARK  179  A    between atoms: _439  and  _440
REMARK  180  A    between atoms: _439  and  _442
REMARK  181  A    between atoms: _442  and  _443
REMARK  182  A    between atoms: _446  and  _448
REMARK  183  A    between atoms: _448  and  _449
REMARK  184  A    between atoms: _448  and  _451
REMARK  185  A    between atoms: _451  and  _452
REMARK  186  A    between atoms: _452  and  _453
REMARK  187  A    between atoms: _455  and  _457
REMARK  188  A    between atoms: _457  and  _458
REMARK  189  A    between atoms: _457  and  _460
REMARK  190  A    between atoms: _460  and  _461
REMARK  191  A    between atoms: _466  and  _467
REMARK  192  A    between atoms: _469  and  _471
REMARK  193  A    between atoms: _471  and  _472
REMARK  194  A    between atoms: _476  and  _477
REMARK  195  A    between atoms: _482  and  _484
REMARK  196  A    between atoms: _484  and  _485
REMARK  197  A    between atoms: _484  and  _487
REMARK  198  A    between atoms: _487  and  _488
REMARK  199  A    between atoms: _491  and  _493
REMARK  200  A    between atoms: _493  and  _494
REMARK  201  A    between atoms: _493  and  _496
REMARK  202  A    between atoms: _496  and  _497
REMARK  203  A    between atoms: _507  and  _509
REMARK  204  A    between atoms: _509  and  _510
REMARK  205  A    between atoms: _509  and  _512
REMARK  206  A    between atoms: _514  and  _516
REMARK  207  A    between atoms: _516  and  _517
REMARK  208  A    between atoms: _516  and  _519
REMARK  209  A    between atoms: _519  and  _520
REMARK  210  A    between atoms: _520  and  _521
REMARK  211  A    between atoms: _526  and  _528
REMARK  212  A    between atoms: _528  and  _529
REMARK  213  A    between atoms: _528  and  _531
REMARK  214  A    between atoms: _531  and  _532
REMARK  215  A    between atoms: _535  and  _537
REMARK  216  A    between atoms: _537  and  _538
REMARK  217  A    between atoms: _537  and  _540
REMARK  218  A    between atoms: _540  and  _541
REMARK  219  A    between atoms: _546  and  _547
REMARK  220  A    between atoms: _549  and  _551
REMARK  221  A    between atoms: _551  and  _552
REMARK  222  A    between atoms: _554  and  _556
REMARK  223  A    between atoms: _556  and  _557
REMARK  224  A    between atoms: _560  and  _562
REMARK  225  A    between atoms: _562  and  _563
REMARK  226  A    between atoms: _562  and  _565
REMARK  227  A    between atoms: _567  and  _569
REMARK  228  A    between atoms: _569  and  _570
REMARK  229  A    between atoms: _569  and  _572
REMARK  230  A    between atoms: _572  and  _573
REMARK  231  A    between atoms: _578  and  _579
REMARK  232  A    between atoms: _581  and  _583
REMARK  233  A    between atoms: _583  and  _584
REMARK  234  A    between atoms: _583  and  _586
REMARK  235  A    between atoms: _586  and  _587
REMARK  236  A    between atoms: _590  and  _592
REMARK  237  A    between atoms: _592  and  _593
REMARK  238  A    between atoms: _592  and  _595
REMARK  239  A    between atoms: _595  and  _596
REMARK  240  A    between atoms: _601  and  _603
REMARK  241  A    between atoms: _603  and  _604
REMARK  242  A    between atoms: _603  and  _606
REMARK  243  A    between atoms: _606  and  _607
REMARK  244  A    between atoms: _617  and  _619
REMARK  245  A    between atoms: _619  and  _620
REMARK  246  A    between atoms: _619  and  _622
REMARK  247  A    between atoms: _622  and  _623
REMARK  248  A    between atoms: _629  and  _631
REMARK  249  A    between atoms: _631  and  _632
REMARK  250  A    between atoms: _635  and  _637
REMARK  251  A    between atoms: _637  and  _638
REMARK  252  A    between atoms: _640  and  _642
REMARK  253  A    between atoms: _642  and  _643
REMARK  254  A    between atoms: _642  and  _645
REMARK  255  A    between atoms: _645  and  _646
REMARK  256  A    between atoms: _651  and  _652
REMARK  257  A    between atoms: _654  and  _656
REMARK  258  A    between atoms: _656  and  _657
REMARK  259  A    between atoms: _656  and  _659
REMARK  260  A    between atoms: _659  and  _660
REMARK  261  A    between atoms: _662  and  _664
REMARK  262  A    between atoms: _664  and  _665
REMARK                            x       y       z     vdW  Elec       q    Type
REMARK                         _______ _______ _______ _____ _____    ______ ____
ROOT
ATOM      1  O   HOH     1     -14.148 -10.012  27.037  0.00  0.00    +0.000 OA
ENDROOT
TORSDOF 0
REMARK  Name = ../refined-set-2016/3hky/3hky_pocket.pdb
REMARK  262 active torsions:
REMARK  status: ('A' for Active; 'I' for Inactive)
REMARK    1  A    between atoms: _1  and  _3
REMARK    2  A    between atoms: _3  and  _4
REMARK    3  A    between atoms: _3  and  _6
REMARK    4  A    between atoms: _6  and  _7
REMARK    5  A    between atoms: _7  and  _8
REMARK    6  A    between atoms: _8  and  _9
REMARK    7  A    between atoms: _9  and  _10
REMARK    8  A    between atoms: _14  and  _16
REMARK    9  A    between atoms: _16  and  _17
REMARK   10  A    between atoms: _16  and  _19
REMARK   11  A    between atoms: _19  and  _20
REMARK   12  A    between atoms: _20  and  _21
REMARK   13  A    between atoms: _24  and  _26
REMARK   14  A    between atoms: _26  and  _27
REMARK   15  A    between atoms: _26  and  _29
REMARK   16  A    between atoms: _29  and  _30
REMARK   17  A    between atoms: _30  and  _31
REMARK   18  A    between atoms: _31  and  _32
REMARK   19  A    between atoms: _41  and  _43
REMARK   20  A    between atoms: _43  and  _44
REMARK   21  A    between atoms: _46  and  _48
REMARK   22  A    between atoms: _48  and  _49
REMARK   23  A    between atoms: _48  and  _51
REMARK   24  A    between atoms: _51  and  _52
REMARK   25  A    between atoms: _58  and  _60
REMARK   26  A    between atoms: _60  and  _61
REMARK   27  A    between atoms: _60  and  _63
REMARK   28  A    between atoms: _63  and  _64
REMARK   29  A    between atoms: _69  and  _70
REMARK   30  A    between atoms: _72  and  _74
REMARK   31  A    between atoms: _74  and  _75
REMARK   32  A    between atoms: _74  and  _77
REMARK   33  A    between atoms: _77  and  _78
REMARK   34  A    between atoms: _81  and  _82
REMARK   35  A    between atoms: _87  and  _89
REMARK   36  A    between atoms: _89  and  _90
REMARK   37  A    between atoms: _89  and  _92
REMARK   38  A    between atoms: _92  and  _93
REMARK   39  A    between atoms: _93  and  _94
REMARK   40  A    between atoms: _94  and  _95
REMARK   41  A    between atoms: _95  and  _96
REMARK   42  A    between atoms: _100  and  _102
REMARK   43  A    between atoms: _102  and  _103
REMARK   44  A    between atoms: _102  and  _105
REMARK   45  A    between atoms: _105  and  _106
REMARK   46  A    between atoms: _106  and  _107
REMARK   47  A    between atoms: _112  and  _114
REMARK   48  A    between atoms: _114  and  _115
REMARK   49  A    between atoms: _114  and  _117
REMARK   50  A    between atoms: _117  and  _118
REMARK   51  A    between atoms: _118  and  _119
REMARK   52  A    between atoms: _119  and  _120
REMARK   53  A    between atoms: _129  and  _131
REMARK   54  A    between atoms: _131  and  _132
REMARK   55  A    between atoms: _131  and  _134
REMARK   56  A    between atoms: _137  and  _139
REMARK   57  A    between atoms: _139  and  _140
REMARK   58  A    between atoms: _139  and  _142
REMARK   59  A    between atoms: _142  and  _143
REMARK   60  A    between atoms: _146  and  _148
REMARK   61  A    between atoms: _148  and  _149
REMARK   62  A    between atoms: _148  and  _151
REMARK   63  A    between atoms: _151  and  _152
REMARK   64  A    between atoms: _155  and  _157
REMARK   65  A    between atoms: _157  and  _158
REMARK   66  A    between atoms: _157  and  _160
REMARK   67  A    between atoms: _160  and  _161
REMARK   68  A    between atoms: _163  and  _165
REMARK   69  A    between atoms: _165  and  _166
REMARK   70  A    between atoms: _165  and  _168
REMARK   71  A    between atoms: _168  and  _169
REMARK   72  A    between atoms: _172  and  _174
REMARK   73  A    between atoms: _174  and  _175
REMARK   74  A    between atoms: _174  and  _177
REMARK   75  A    between atoms: _177  and  _178
REMARK   76  A    between atoms: _180  and  _182
REMARK   77  A    between atoms: _182  and  _183
REMARK   78  A    between atoms: _182  and  _185
REMARK   79  A    between atoms: _185  and  _186
REMARK   80  A    between atoms: _191  and  _193
REMARK   81  A    between atoms: _193  and  _194
REMARK   82  A    between atoms: _193  and  _196
REMARK   83  A    between atoms: _196  and  _197
REMARK   84  A    between atoms: _200  and  _202
REMARK   85  A    between atoms: _202  and  _203
REMARK   86  A    between atoms: _202  and  _205
REMARK   87  A    between atoms: _205  and  _206
REMARK   88  A    between atoms: _211  and  _213
REMARK   89  A    between atoms: _213  and  _214
REMARK   90  A    between atoms: _216  and  _218
REMARK   91  A    between atoms: _218  and  _219
REMARK   92  A    between atoms: _218  and  _221
REMARK   93  A    between atoms: _221  and  _222
REMARK   94  A    between atoms: _225  and  _227
REMARK   95  A    between atoms: _227  and  _228
REMARK   96  A    between atoms: _227  and  _230
REMARK   97  A    between atoms: _230  and  _231
REMARK   98  A    between atoms: _234  and  _236
REMARK   99  A    between atoms: _236  and  _237
REMARK  100  A    between atoms: _236  and  _239
REMARK  101  A    between atoms: _239  and  _240
REMARK  102  A    between atoms: _242  and  _244
REMARK  103  A    between atoms: _244  and  _245
REMARK  104  A    between atoms: _244  and  _247
REMARK  105  A    between atoms: _249  and  _251
REMARK  106  A    between atoms: _251  and  _252
REMARK  107  A    between atoms: _251  and  _254
REMARK  108  A    between atoms: _254  and  _255
REMARK  109  A    between atoms: _257  and  _259
REMARK  110  A    between atoms: _259  and  _260
REMARK  111  A    between atoms: _259  and  _262
REMARK  112  A    between atoms: _262  and  _263
REMARK  113  A    between atoms: _265  and  _267
REMARK  114  A    between atoms: _267  and  _268
REMARK  115  A    between atoms: _267  and  _270
REMARK  116  A    between atoms: _270  and  _271
REMARK  117  A    between atoms: _276  and  _278
REMARK  118  A    between atoms: _278  and  _279
REMARK  119  A    between atoms: _278  and  _281
REMARK  120  A    between atoms: _281  and  _282
REMARK  121  A    between atoms: _287  and  _288
REMARK  122  A    between atoms: _290  and  _292
REMARK  123  A    between atoms: _292  and  _293
REMARK  124  A    between atoms: _292  and  _295
REMARK  125  A    between atoms: _295  and  _296
REMARK  126  A    between atoms: _299  and  _301
REMARK  127  A    between atoms: _301  and  _302
REMARK  128  A    between atoms: _301  and  _304
REMARK  129  A    between atoms: _304  and  _305
REMARK  130  A    between atoms: _308  and  _310
REMARK  131  A    between atoms: _310  and  _311
REMARK  132  A    between atoms: _310  and  _313
REMARK  133  A    between atoms: _313  and  _314
REMARK  134  A    between atoms: _314  and  _315
REMARK  135  A    between atoms: _315  and  _316
REMARK  136  A    between atoms: _326  and  _327
REMARK  137  A    between atoms: _332  and  _334
REMARK  138  A    between atoms: _334  and  _335
REMARK  139  A    between atoms: _334  and  _337
REMARK  140  A    between atoms: _337  and  _338
REMARK  141  A    between atoms: _338  and  _339
REMARK  142  A    between atoms: _339  and  _340
REMARK  143  A    between atoms: _349  and  _351
REMARK  144  A    between atoms: _351  and  _352
REMARK  145  A    between atoms: _351  and  _354
REMARK  146  A    between atoms: _354  and  _355
REMARK  147  A    between atoms: _355  and  _356
REMARK  148  A    between atoms: _359  and  _361
REMARK  149  A    between atoms: _361  and  _362
REMARK  150  A    between atoms: _361  and  _364
REMARK  151  A    between atoms: _364  and  _365
REMARK  152  A    between atoms: _368  and  _370
REMARK  153  A    between atoms: _370  and  _371
REMARK  154  A    between atoms: _370  and  _373
REMARK  155  A    between atoms: _373  and  _374
REMARK  156  A    between atoms: _379  and  _381
REMARK  157  A    between atoms: _381  and  _382
REMARK  158  A    between atoms: _381  and  _384
REMARK  159  A    between atoms: _384  and  _385
REMARK  160  A    between atoms: _387  and  _389
REMARK  161  A    between atoms: _389  and  _390
REMARK  162  A    between atoms: _389  and  _392
REMARK  163  A    between atoms: _392  and  _393
REMARK  164  A    between atoms: _403  and  _405
REMARK  165  A    between atoms: _405  and  _406
REMARK  166  A    between atoms: _405  and  _408
REMARK  167  A    between atoms: _408  and  _409
REMARK  168  A    between atoms: _412  and  _414
REMARK  169  A    between atoms: _414  and  _415
REMARK  170  A    between atoms: _417  and  _419
REMARK  171  A    between atoms: _419  and  _420
REMARK  172  A    between atoms: _419  and  _422
REMARK  173  A    between atoms: _422  and  _423
REMARK  174  A    between atoms: _428  and  _430
REMARK  175  A    between atoms: _430  and  _431
REMARK  176  A    between atoms: _430  and  _433
REMARK  177  A    between atoms: _433  and  _434
REMARK  178  A    between atoms: _437  and  _439
REMARK  179  A    between atoms: _439  and  _440
REMARK  180  A    between atoms: _439  and  _442
REMARK  181  A    between atoms: _442  and  _443
REMARK  182  A    between atoms: _446  and  _448
REMARK  183  A    between atoms: _448  and  _449
REMARK  184  A    between atoms: _448  and  _451
REMARK  185  A    between atoms: _451  and  _452
REMARK  186  A    between atoms: _452  and  _453
REMARK  187  A    between atoms: _455  and  _457
REMARK  188  A    between atoms: _457  and  _458
REMARK  189  A    between atoms: _457  and  _460
REMARK  190  A    between atoms: _460  and  _461
REMARK  191  A    between atoms: _466  and  _467
REMARK  192  A    between atoms: _469  and  _471
REMARK  193  A    between atoms: _471  and  _472
REMARK  194  A    between atoms: _476  and  _477
REMARK  195  A    between atoms: _482  and  _484
REMARK  196  A    between atoms: _484  and  _485
REMARK  197  A    between atoms: _484  and  _487
REMARK  198  A    between atoms: _487  and  _488
REMARK  199  A    between atoms: _491  and  _493
REMARK  200  A    between atoms: _493  and  _494
REMARK  201  A    between atoms: _493  and  _496
REMARK  202  A    between atoms: _496  and  _497
REMARK  203  A    between atoms: _507  and  _509
REMARK  204  A    between atoms: _509  and  _510
REMARK  205  A    between atoms: _509  and  _512
REMARK  206  A    between atoms: _514  and  _516
REMARK  207  A    between atoms: _516  and  _517
REMARK  208  A    between atoms: _516  and  _519
REMARK  209  A    between atoms: _519  and  _520
REMARK  210  A    between atoms: _520  and  _521
REMARK  211  A    between atoms: _526  and  _528
REMARK  212  A    between atoms: _528  and  _529
REMARK  213  A    between atoms: _528  and  _531
REMARK  214  A    between atoms: _531  and  _532
REMARK  215  A    between atoms: _535  and  _537
REMARK  216  A    between atoms: _537  and  _538
REMARK  217  A    between atoms: _537  and  _540
REMARK  218  A    between atoms: _540  and  _541
REMARK  219  A    between atoms: _546  and  _547
REMARK  220  A    between atoms: _549  and  _551
REMARK  221  A    between atoms: _551  and  _552
REMARK  222  A    between atoms: _554  and  _556
REMARK  223  A    between atoms: _556  and  _557
REMARK  224  A    between atoms: _560  and  _562
REMARK  225  A    between atoms: _562  and  _563
REMARK  226  A    between atoms: _562  and  _565
REMARK  227  A    between atoms: _567  and  _569
REMARK  228  A    between atoms: _569  and  _570
REMARK  229  A    between atoms: _569  and  _572
REMARK  230  A    between atoms: _572  and  _573
REMARK  231  A    between atoms: _578  and  _579
REMARK  232  A    between atoms: _581  and  _583
REMARK  233  A    between atoms: _583  and  _584
REMARK  234  A    between atoms: _583  and  _586
REMARK  235  A    between atoms: _586  and  _587
REMARK  236  A    between atoms: _590  and  _592
REMARK  237  A    between atoms: _592  and  _593
REMARK  238  A    between atoms: _592  and  _595
REMARK  239  A    between atoms: _595  and  _596
REMARK  240  A    between atoms: _601  and  _603
REMARK  241  A    between atoms: _603  and  _604
REMARK  242  A    between atoms: _603  and  _606
REMARK  243  A    between atoms: _606  and  _607
REMARK  244  A    between atoms: _617  and  _619
REMARK  245  A    between atoms: _619  and  _620
REMARK  246  A    between atoms: _619  and  _622
REMARK  247  A    between atoms: _622  and  _623
REMARK  248  A    between atoms: _629  and  _631
REMARK  249  A    between atoms: _631  and  _632
REMARK  250  A    between atoms: _635  and  _637
REMARK  251  A    between atoms: _637  and  _638
REMARK  252  A    between atoms: _640  and  _642
REMARK  253  A    between atoms: _642  and  _643
REMARK  254  A    between atoms: _642  and  _645
REMARK  255  A    between atoms: _645  and  _646
REMARK  256  A    between atoms: _651  and  _652
REMARK  257  A    between atoms: _654  and  _656
REMARK  258  A    between atoms: _656  and  _657
REMARK  259  A    between atoms: _656  and  _659
REMARK  260  A    between atoms: _659  and  _660
REMARK  261  A    between atoms: _662  and  _664
REMARK  262  A    between atoms: _664  and  _665
REMARK                            x       y       z     vdW  Elec       q    Type
REMARK                         _______ _______ _______ _____ _____    ______ ____
ROOT
ATOM      1  O   HOH     1     -17.552  -8.053  20.640  0.00  0.00    +0.000 OA
ENDROOT
TORSDOF 0
REMARK  Name = ../refined-set-2016/3hky/3hky_pocket.pdb
REMARK  262 active torsions:
REMARK  status: ('A' for Active; 'I' for Inactive)
REMARK    1  A    between atoms: _1  and  _3
REMARK    2  A    between atoms: _3  and  _4
REMARK    3  A    between atoms: _3  and  _6
REMARK    4  A    between atoms: _6  and  _7
REMARK    5  A    between atoms: _7  and  _8
REMARK    6  A    between atoms: _8  and  _9
REMARK    7  A    between atoms: _9  and  _10
REMARK    8  A    between atoms: _14  and  _16
REMARK    9  A    between atoms: _16  and  _17
REMARK   10  A    between atoms: _16  and  _19
REMARK   11  A    between atoms: _19  and  _20
REMARK   12  A    between atoms: _20  and  _21
REMARK   13  A    between atoms: _24  and  _26
REMARK   14  A    between atoms: _26  and  _27
REMARK   15  A    between atoms: _26  and  _29
REMARK   16  A    between atoms: _29  and  _30
REMARK   17  A    between atoms: _30  and  _31
REMARK   18  A    between atoms: _31  and  _32
REMARK   19  A    between atoms: _41  and  _43
REMARK   20  A    between atoms: _43  and  _44
REMARK   21  A    between atoms: _46  and  _48
REMARK   22  A    between atoms: _48  and  _49
REMARK   23  A    between atoms: _48  and  _51
REMARK   24  A    between atoms: _51  and  _52
REMARK   25  A    between atoms: _58  and  _60
REMARK   26  A    between atoms: _60  and  _61
REMARK   27  A    between atoms: _60  and  _63
REMARK   28  A    between atoms: _63  and  _64
REMARK   29  A    between atoms: _69  and  _70
REMARK   30  A    between atoms: _72  and  _74
REMARK   31  A    between atoms: _74  and  _75
REMARK   32  A    between atoms: _74  and  _77
REMARK   33  A    between atoms: _77  and  _78
REMARK   34  A    between atoms: _81  and  _82
REMARK   35  A    between atoms: _87  and  _89
REMARK   36  A    between atoms: _89  and  _90
REMARK   37  A    between atoms: _89  and  _92
REMARK   38  A    between atoms: _92  and  _93
REMARK   39  A    between atoms: _93  and  _94
REMARK   40  A    between atoms: _94  and  _95
REMARK   41  A    between atoms: _95  and  _96
REMARK   42  A    between atoms: _100  and  _102
REMARK   43  A    between atoms: _102  and  _103
REMARK   44  A    between atoms: _102  and  _105
REMARK   45  A    between atoms: _105  and  _106
REMARK   46  A    between atoms: _106  and  _107
REMARK   47  A    between atoms: _112  and  _114
REMARK   48  A    between atoms: _114  and  _115
REMARK   49  A    between atoms: _114  and  _117
REMARK   50  A    between atoms: _117  and  _118
REMARK   51  A    between atoms: _118  and  _119
REMARK   52  A    between atoms: _119  and  _120
REMARK   53  A    between atoms: _129  and  _131
REMARK   54  A    between atoms: _131  and  _132
REMARK   55  A    between atoms: _131  and  _134
REMARK   56  A    between atoms: _137  and  _139
REMARK   57  A    between atoms: _139  and  _140
REMARK   58  A    between atoms: _139  and  _142
REMARK   59  A    between atoms: _142  and  _143
REMARK   60  A    between atoms: _146  and  _148
REMARK   61  A    between atoms: _148  and  _149
REMARK   62  A    between atoms: _148  and  _151
REMARK   63  A    between atoms: _151  and  _152
REMARK   64  A    between atoms: _155  and  _157
REMARK   65  A    between atoms: _157  and  _158
REMARK   66  A    between atoms: _157  and  _160
REMARK   67  A    between atoms: _160  and  _161
REMARK   68  A    between atoms: _163  and  _165
REMARK   69  A    between atoms: _165  and  _166
REMARK   70  A    between atoms: _165  and  _168
REMARK   71  A    between atoms: _168  and  _169
REMARK   72  A    between atoms: _172  and  _174
REMARK   73  A    between atoms: _174  and  _175
REMARK   74  A    between atoms: _174  and  _177
REMARK   75  A    between atoms: _177  and  _178
REMARK   76  A    between atoms: _180  and  _182
REMARK   77  A    between atoms: _182  and  _183
REMARK   78  A    between atoms: _182  and  _185
REMARK   79  A    between atoms: _185  and  _186
REMARK   80  A    between atoms: _191  and  _193
REMARK   81  A    between atoms: _193  and  _194
REMARK   82  A    between atoms: _193  and  _196
REMARK   83  A    between atoms: _196  and  _197
REMARK   84  A    between atoms: _200  and  _202
REMARK   85  A    between atoms: _202  and  _203
REMARK   86  A    between atoms: _202  and  _205
REMARK   87  A    between atoms: _205  and  _206
REMARK   88  A    between atoms: _211  and  _213
REMARK   89  A    between atoms: _213  and  _214
REMARK   90  A    between atoms: _216  and  _218
REMARK   91  A    between atoms: _218  and  _219
REMARK   92  A    between atoms: _218  and  _221
REMARK   93  A    between atoms: _221  and  _222
REMARK   94  A    between atoms: _225  and  _227
REMARK   95  A    between atoms: _227  and  _228
REMARK   96  A    between atoms: _227  and  _230
REMARK   97  A    between atoms: _230  and  _231
REMARK   98  A    between atoms: _234  and  _236
REMARK   99  A    between atoms: _236  and  _237
REMARK  100  A    between atoms: _236  and  _239
REMARK  101  A    between atoms: _239  and  _240
REMARK  102  A    between atoms: _242  and  _244
REMARK  103  A    between atoms: _244  and  _245
REMARK  104  A    between atoms: _244  and  _247
REMARK  105  A    between atoms: _249  and  _251
REMARK  106  A    between atoms: _251  and  _252
REMARK  107  A    between atoms: _251  and  _254
REMARK  108  A    between atoms: _254  and  _255
REMARK  109  A    between atoms: _257  and  _259
REMARK  110  A    between atoms: _259  and  _260
REMARK  111  A    between atoms: _259  and  _262
REMARK  112  A    between atoms: _262  and  _263
REMARK  113  A    between atoms: _265  and  _267
REMARK  114  A    between atoms: _267  and  _268
REMARK  115  A    between atoms: _267  and  _270
REMARK  116  A    between atoms: _270  and  _271
REMARK  117  A    between atoms: _276  and  _278
REMARK  118  A    between atoms: _278  and  _279
REMARK  119  A    between atoms: _278  and  _281
REMARK  120  A    between atoms: _281  and  _282
REMARK  121  A    between atoms: _287  and  _288
REMARK  122  A    between atoms: _290  and  _292
REMARK  123  A    between atoms: _292  and  _293
REMARK  124  A    between atoms: _292  and  _295
REMARK  125  A    between atoms: _295  and  _296
REMARK  126  A    between atoms: _299  and  _301
REMARK  127  A    between atoms: _301  and  _302
REMARK  128  A    between atoms: _301  and  _304
REMARK  129  A    between atoms: _304  and  _305
REMARK  130  A    between atoms: _308  and  _310
REMARK  131  A    between atoms: _310  and  _311
REMARK  132  A    between atoms: _310  and  _313
REMARK  133  A    between atoms: _313  and  _314
REMARK  134  A    between atoms: _314  and  _315
REMARK  135  A    between atoms: _315  and  _316
REMARK  136  A    between atoms: _326  and  _327
REMARK  137  A    between atoms: _332  and  _334
REMARK  138  A    between atoms: _334  and  _335
REMARK  139  A    between atoms: _334  and  _337
REMARK  140  A    between atoms: _337  and  _338
REMARK  141  A    between atoms: _338  and  _339
REMARK  142  A    between atoms: _339  and  _340
REMARK  143  A    between atoms: _349  and  _351
REMARK  144  A    between atoms: _351  and  _352
REMARK  145  A    between atoms: _351  and  _354
REMARK  146  A    between atoms: _354  and  _355
REMARK  147  A    between atoms: _355  and  _356
REMARK  148  A    between atoms: _359  and  _361
REMARK  149  A    between atoms: _361  and  _362
REMARK  150  A    between atoms: _361  and  _364
REMARK  151  A    between atoms: _364  and  _365
REMARK  152  A    between atoms: _368  and  _370
REMARK  153  A    between atoms: _370  and  _371
REMARK  154  A    between atoms: _370  and  _373
REMARK  155  A    between atoms: _373  and  _374
REMARK  156  A    between atoms: _379  and  _381
REMARK  157  A    between atoms: _381  and  _382
REMARK  158  A    between atoms: _381  and  _384
REMARK  159  A    between atoms: _384  and  _385
REMARK  160  A    between atoms: _387  and  _389
REMARK  161  A    between atoms: _389  and  _390
REMARK  162  A    between atoms: _389  and  _392
REMARK  163  A    between atoms: _392  and  _393
REMARK  164  A    between atoms: _403  and  _405
REMARK  165  A    between atoms: _405  and  _406
REMARK  166  A    between atoms: _405  and  _408
REMARK  167  A    between atoms: _408  and  _409
REMARK  168  A    between atoms: _412  and  _414
REMARK  169  A    between atoms: _414  and  _415
REMARK  170  A    between atoms: _417  and  _419
REMARK  171  A    between atoms: _419  and  _420
REMARK  172  A    between atoms: _419  and  _422
REMARK  173  A    between atoms: _422  and  _423
REMARK  174  A    between atoms: _428  and  _430
REMARK  175  A    between atoms: _430  and  _431
REMARK  176  A    between atoms: _430  and  _433
REMARK  177  A    between atoms: _433  and  _434
REMARK  178  A    between atoms: _437  and  _439
REMARK  179  A    between atoms: _439  and  _440
REMARK  180  A    between atoms: _439  and  _442
REMARK  181  A    between atoms: _442  and  _443
REMARK  182  A    between atoms: _446  and  _448
REMARK  183  A    between atoms: _448  and  _449
REMARK  184  A    between atoms: _448  and  _451
REMARK  185  A    between atoms: _451  and  _452
REMARK  186  A    between atoms: _452  and  _453
REMARK  187  A    between atoms: _455  and  _457
REMARK  188  A    between atoms: _457  and  _458
REMARK  189  A    between atoms: _457  and  _460
REMARK  190  A    between atoms: _460  and  _461
REMARK  191  A    between atoms: _466  and  _467
REMARK  192  A    between atoms: _469  and  _471
REMARK  193  A    between atoms: _471  and  _472
REMARK  194  A    between atoms: _476  and  _477
REMARK  195  A    between atoms: _482  and  _484
REMARK  196  A    between atoms: _484  and  _485
REMARK  197  A    between atoms: _484  and  _487
REMARK  198  A    between atoms: _487  and  _488
REMARK  199  A    between atoms: _491  and  _493
REMARK  200  A    between atoms: _493  and  _494
REMARK  201  A    between atoms: _493  and  _496
REMARK  202  A    between atoms: _496  and  _497
REMARK  203  A    between atoms: _507  and  _509
REMARK  204  A    between atoms: _509  and  _510
REMARK  205  A    between atoms: _509  and  _512
REMARK  206  A    between atoms: _514  and  _516
REMARK  207  A    between atoms: _516  and  _517
REMARK  208  A    between atoms: _516  and  _519
REMARK  209  A    between atoms: _519  and  _520
REMARK  210  A    between atoms: _520  and  _521
REMARK  211  A    between atoms: _526  and  _528
REMARK  212  A    between atoms: _528  and  _529
REMARK  213  A    between atoms: _528  and  _531
REMARK  214  A    between atoms: _531  and  _532
REMARK  215  A    between atoms: _535  and  _537
REMARK  216  A    between atoms: _537  and  _538
REMARK  217  A    between atoms: _537  and  _540
REMARK  218  A    between atoms: _540  and  _541
REMARK  219  A    between atoms: _546  and  _547
REMARK  220  A    between atoms: _549  and  _551
REMARK  221  A    between atoms: _551  and  _552
REMARK  222  A    between atoms: _554  and  _556
REMARK  223  A    between atoms: _556  and  _557
REMARK  224  A    between atoms: _560  and  _562
REMARK  225  A    between atoms: _562  and  _563
REMARK  226  A    between atoms: _562  and  _565
REMARK  227  A    between atoms: _567  and  _569
REMARK  228  A    between atoms: _569  and  _570
REMARK  229  A    between atoms: _569  and  _572
REMARK  230  A    between atoms: _572  and  _573
REMARK  231  A    between atoms: _578  and  _579
REMARK  232  A    between atoms: _581  and  _583
REMARK  233  A    between atoms: _583  and  _584
REMARK  234  A    between atoms: _583  and  _586
REMARK  235  A    between atoms: _586  and  _587
REMARK  236  A    between atoms: _590  and  _592
REMARK  237  A    between atoms: _592  and  _593
REMARK  238  A    between atoms: _592  and  _595
REMARK  239  A    between atoms: _595  and  _596
REMARK  240  A    between atoms: _601  and  _603
REMARK  241  A    between atoms: _603  and  _604
REMARK  242  A    between atoms: _603  and  _606
REMARK  243  A    between atoms: _606  and  _607
REMARK  244  A    between atoms: _617  and  _619
REMARK  245  A    between atoms: _619  and  _620
REMARK  246  A    between atoms: _619  and  _622
REMARK  247  A    between atoms: _622  and  _623
REMARK  248  A    between atoms: _629  and  _631
REMARK  249  A    between atoms: _631  and  _632
REMARK  250  A    between atoms: _635  and  _637
REMARK  251  A    between atoms: _637  and  _638
REMARK  252  A    between atoms: _640  and  _642
REMARK  253  A    between atoms: _642  and  _643
REMARK  254  A    between atoms: _642  and  _645
REMARK  255  A    between atoms: _645  and  _646
REMARK  256  A    between atoms: _651  and  _652
REMARK  257  A    between atoms: _654  and  _656
REMARK  258  A    between atoms: _656  and  _657
REMARK  259  A    between atoms: _656  and  _659
REMARK  260  A    between atoms: _659  and  _660
REMARK  261  A    between atoms: _662  and  _664
REMARK  262  A    between atoms: _664  and  _665
REMARK                            x       y       z     vdW  Elec       q    Type
REMARK                         _______ _______ _______ _____ _____    ______ ____
ROOT
ATOM      1  O   HOH     1     -17.258  -6.018  23.226  0.00  0.00    +0.000 OA
ENDROOT
TORSDOF 0
REMARK  Name = ../refined-set-2016/3hky/3hky_pocket.pdb
REMARK  262 active torsions:
REMARK  status: ('A' for Active; 'I' for Inactive)
REMARK    1  A    between atoms: _1  and  _3
REMARK    2  A    between atoms: _3  and  _4
REMARK    3  A    between atoms: _3  and  _6
REMARK    4  A    between atoms: _6  and  _7
REMARK    5  A    between atoms: _7  and  _8
REMARK    6  A    between atoms: _8  and  _9
REMARK    7  A    between atoms: _9  and  _10
REMARK    8  A    between atoms: _14  and  _16
REMARK    9  A    between atoms: _16  and  _17
REMARK   10  A    between atoms: _16  and  _19
REMARK   11  A    between atoms: _19  and  _20
REMARK   12  A    between atoms: _20  and  _21
REMARK   13  A    between atoms: _24  and  _26
REMARK   14  A    between atoms: _26  and  _27
REMARK   15  A    between atoms: _26  and  _29
REMARK   16  A    between atoms: _29  and  _30
REMARK   17  A    between atoms: _30  and  _31
REMARK   18  A    between atoms: _31  and  _32
REMARK   19  A    between atoms: _41  and  _43
REMARK   20  A    between atoms: _43  and  _44
REMARK   21  A    between atoms: _46  and  _48
REMARK   22  A    between atoms: _48  and  _49
REMARK   23  A    between atoms: _48  and  _51
REMARK   24  A    between atoms: _51  and  _52
REMARK   25  A    between atoms: _58  and  _60
REMARK   26  A    between atoms: _60  and  _61
REMARK   27  A    between atoms: _60  and  _63
REMARK   28  A    between atoms: _63  and  _64
REMARK   29  A    between atoms: _69  and  _70
REMARK   30  A    between atoms: _72  and  _74
REMARK   31  A    between atoms: _74  and  _75
REMARK   32  A    between atoms: _74  and  _77
REMARK   33  A    between atoms: _77  and  _78
REMARK   34  A    between atoms: _81  and  _82
REMARK   35  A    between atoms: _87  and  _89
REMARK   36  A    between atoms: _89  and  _90
REMARK   37  A    between atoms: _89  and  _92
REMARK   38  A    between atoms: _92  and  _93
REMARK   39  A    between atoms: _93  and  _94
REMARK   40  A    between atoms: _94  and  _95
REMARK   41  A    between atoms: _95  and  _96
REMARK   42  A    between atoms: _100  and  _102
REMARK   43  A    between atoms: _102  and  _103
REMARK   44  A    between atoms: _102  and  _105
REMARK   45  A    between atoms: _105  and  _106
REMARK   46  A    between atoms: _106  and  _107
REMARK   47  A    between atoms: _112  and  _114
REMARK   48  A    between atoms: _114  and  _115
REMARK   49  A    between atoms: _114  and  _117
REMARK   50  A    between atoms: _117  and  _118
REMARK   51  A    between atoms: _118  and  _119
REMARK   52  A    between atoms: _119  and  _120
REMARK   53  A    between atoms: _129  and  _131
REMARK   54  A    between atoms: _131  and  _132
REMARK   55  A    between atoms: _131  and  _134
REMARK   56  A    between atoms: _137  and  _139
REMARK   57  A    between atoms: _139  and  _140
REMARK   58  A    between atoms: _139  and  _142
REMARK   59  A    between atoms: _142  and  _143
REMARK   60  A    between atoms: _146  and  _148
REMARK   61  A    between atoms: _148  and  _149
REMARK   62  A    between atoms: _148  and  _151
REMARK   63  A    between atoms: _151  and  _152
REMARK   64  A    between atoms: _155  and  _157
REMARK   65  A    between atoms: _157  and  _158
REMARK   66  A    between atoms: _157  and  _160
REMARK   67  A    between atoms: _160  and  _161
REMARK   68  A    between atoms: _163  and  _165
REMARK   69  A    between atoms: _165  and  _166
REMARK   70  A    between atoms: _165  and  _168
REMARK   71  A    between atoms: _168  and  _169
REMARK   72  A    between atoms: _172  and  _174
REMARK   73  A    between atoms: _174  and  _175
REMARK   74  A    between atoms: _174  and  _177
REMARK   75  A    between atoms: _177  and  _178
REMARK   76  A    between atoms: _180  and  _182
REMARK   77  A    between atoms: _182  and  _183
REMARK   78  A    between atoms: _182  and  _185
REMARK   79  A    between atoms: _185  and  _186
REMARK   80  A    between atoms: _191  and  _193
REMARK   81  A    between atoms: _193  and  _194
REMARK   82  A    between atoms: _193  and  _196
REMARK   83  A    between atoms: _196  and  _197
REMARK   84  A    between atoms: _200  and  _202
REMARK   85  A    between atoms: _202  and  _203
REMARK   86  A    between atoms: _202  and  _205
REMARK   87  A    between atoms: _205  and  _206
REMARK   88  A    between atoms: _211  and  _213
REMARK   89  A    between atoms: _213  and  _214
REMARK   90  A    between atoms: _216  and  _218
REMARK   91  A    between atoms: _218  and  _219
REMARK   92  A    between atoms: _218  and  _221
REMARK   93  A    between atoms: _221  and  _222
REMARK   94  A    between atoms: _225  and  _227
REMARK   95  A    between atoms: _227  and  _228
REMARK   96  A    between atoms: _227  and  _230
REMARK   97  A    between atoms: _230  and  _231
REMARK   98  A    between atoms: _234  and  _236
REMARK   99  A    between atoms: _236  and  _237
REMARK  100  A    between atoms: _236  and  _239
REMARK  101  A    between atoms: _239  and  _240
REMARK  102  A    between atoms: _242  and  _244
REMARK  103  A    between atoms: _244  and  _245
REMARK  104  A    between atoms: _244  and  _247
REMARK  105  A    between atoms: _249  and  _251
REMARK  106  A    between atoms: _251  and  _252
REMARK  107  A    between atoms: _251  and  _254
REMARK  108  A    between atoms: _254  and  _255
REMARK  109  A    between atoms: _257  and  _259
REMARK  110  A    between atoms: _259  and  _260
REMARK  111  A    between atoms: _259  and  _262
REMARK  112  A    between atoms: _262  and  _263
REMARK  113  A    between atoms: _265  and  _267
REMARK  114  A    between atoms: _267  and  _268
REMARK  115  A    between atoms: _267  and  _270
REMARK  116  A    between atoms: _270  and  _271
REMARK  117  A    between atoms: _276  and  _278
REMARK  118  A    between atoms: _278  and  _279
REMARK  119  A    between atoms: _278  and  _281
REMARK  120  A    between atoms: _281  and  _282
REMARK  121  A    between atoms: _287  and  _288
REMARK  122  A    between atoms: _290  and  _292
REMARK  123  A    between atoms: _292  and  _293
REMARK  124  A    between atoms: _292  and  _295
REMARK  125  A    between atoms: _295  and  _296
REMARK  126  A    between atoms: _299  and  _301
REMARK  127  A    between atoms: _301  and  _302
REMARK  128  A    between atoms: _301  and  _304
REMARK  129  A    between atoms: _304  and  _305
REMARK  130  A    between atoms: _308  and  _310
REMARK  131  A    between atoms: _310  and  _311
REMARK  132  A    between atoms: _310  and  _313
REMARK  133  A    between atoms: _313  and  _314
REMARK  134  A    between atoms: _314  and  _315
REMARK  135  A    between atoms: _315  and  _316
REMARK  136  A    between atoms: _326  and  _327
REMARK  137  A    between atoms: _332  and  _334
REMARK  138  A    between atoms: _334  and  _335
REMARK  139  A    between atoms: _334  and  _337
REMARK  140  A    between atoms: _337  and  _338
REMARK  141  A    between atoms: _338  and  _339
REMARK  142  A    between atoms: _339  and  _340
REMARK  143  A    between atoms: _349  and  _351
REMARK  144  A    between atoms: _351  and  _352
REMARK  145  A    between atoms: _351  and  _354
REMARK  146  A    between atoms: _354  and  _355
REMARK  147  A    between atoms: _355  and  _356
REMARK  148  A    between atoms: _359  and  _361
REMARK  149  A    between atoms: _361  and  _362
REMARK  150  A    between atoms: _361  and  _364
REMARK  151  A    between atoms: _364  and  _365
REMARK  152  A    between atoms: _368  and  _370
REMARK  153  A    between atoms: _370  and  _371
REMARK  154  A    between atoms: _370  and  _373
REMARK  155  A    between atoms: _373  and  _374
REMARK  156  A    between atoms: _379  and  _381
REMARK  157  A    between atoms: _381  and  _382
REMARK  158  A    between atoms: _381  and  _384
REMARK  159  A    between atoms: _384  and  _385
REMARK  160  A    between atoms: _387  and  _389
REMARK  161  A    between atoms: _389  and  _390
REMARK  162  A    between atoms: _389  and  _392
REMARK  163  A    between atoms: _392  and  _393
REMARK  164  A    between atoms: _403  and  _405
REMARK  165  A    between atoms: _405  and  _406
REMARK  166  A    between atoms: _405  and  _408
REMARK  167  A    between atoms: _408  and  _409
REMARK  168  A    between atoms: _412  and  _414
REMARK  169  A    between atoms: _414  and  _415
REMARK  170  A    between atoms: _417  and  _419
REMARK  171  A    between atoms: _419  and  _420
REMARK  172  A    between atoms: _419  and  _422
REMARK  173  A    between atoms: _422  and  _423
REMARK  174  A    between atoms: _428  and  _430
REMARK  175  A    between atoms: _430  and  _431
REMARK  176  A    between atoms: _430  and  _433
REMARK  177  A    between atoms: _433  and  _434
REMARK  178  A    between atoms: _437  and  _439
REMARK  179  A    between atoms: _439  and  _440
REMARK  180  A    between atoms: _439  and  _442
REMARK  181  A    between atoms: _442  and  _443
REMARK  182  A    between atoms: _446  and  _448
REMARK  183  A    between atoms: _448  and  _449
REMARK  184  A    between atoms: _448  and  _451
REMARK  185  A    between atoms: _451  and  _452
REMARK  186  A    between atoms: _452  and  _453
REMARK  187  A    between atoms: _455  and  _457
REMARK  188  A    between atoms: _457  and  _458
REMARK  189  A    between atoms: _457  and  _460
REMARK  190  A    between atoms: _460  and  _461
REMARK  191  A    between atoms: _466  and  _467
REMARK  192  A    between atoms: _469  and  _471
REMARK  193  A    between atoms: _471  and  _472
REMARK  194  A    between atoms: _476  and  _477
REMARK  195  A    between atoms: _482  and  _484
REMARK  196  A    between atoms: _484  and  _485
REMARK  197  A    between atoms: _484  and  _487
REMARK  198  A    between atoms: _487  and  _488
REMARK  199  A    between atoms: _491  and  _493
REMARK  200  A    between atoms: _493  and  _494
REMARK  201  A    between atoms: _493  and  _496
REMARK  202  A    between atoms: _496  and  _497
REMARK  203  A    between atoms: _507  and  _509
REMARK  204  A    between atoms: _509  and  _510
REMARK  205  A    between atoms: _509  and  _512
REMARK  206  A    between atoms: _514  and  _516
REMARK  207  A    between atoms: _516  and  _517
REMARK  208  A    between atoms: _516  and  _519
REMARK  209  A    between atoms: _519  and  _520
REMARK  210  A    between atoms: _520  and  _521
REMARK  211  A    between atoms: _526  and  _528
REMARK  212  A    between atoms: _528  and  _529
REMARK  213  A    between atoms: _528  and  _531
REMARK  214  A    between atoms: _531  and  _532
REMARK  215  A    between atoms: _535  and  _537
REMARK  216  A    between atoms: _537  and  _538
REMARK  217  A    between atoms: _537  and  _540
REMARK  218  A    between atoms: _540  and  _541
REMARK  219  A    between atoms: _546  and  _547
REMARK  220  A    between atoms: _549  and  _551
REMARK  221  A    between atoms: _551  and  _552
REMARK  222  A    between atoms: _554  and  _556
REMARK  223  A    between atoms: _556  and  _557
REMARK  224  A    between atoms: _560  and  _562
REMARK  225  A    between atoms: _562  and  _563
REMARK  226  A    between atoms: _562  and  _565
REMARK  227  A    between atoms: _567  and  _569
REMARK  228  A    between atoms: _569  and  _570
REMARK  229  A    between atoms: _569  and  _572
REMARK  230  A    between atoms: _572  and  _573
REMARK  231  A    between atoms: _578  and  _579
REMARK  232  A    between atoms: _581  and  _583
REMARK  233  A    between atoms: _583  and  _584
REMARK  234  A    between atoms: _583  and  _586
REMARK  235  A    between atoms: _586  and  _587
REMARK  236  A    between atoms: _590  and  _592
REMARK  237  A    between atoms: _592  and  _593
REMARK  238  A    between atoms: _592  and  _595
REMARK  239  A    between atoms: _595  and  _596
REMARK  240  A    between atoms: _601  and  _603
REMARK  241  A    between atoms: _603  and  _604
REMARK  242  A    between atoms: _603  and  _606
REMARK  243  A    between atoms: _606  and  _607
REMARK  244  A    between atoms: _617  and  _619
REMARK  245  A    between atoms: _619  and  _620
REMARK  246  A    between atoms: _619  and  _622
REMARK  247  A    between atoms: _622  and  _623
REMARK  248  A    between atoms: _629  and  _631
REMARK  249  A    between atoms: _631  and  _632
REMARK  250  A    between atoms: _635  and  _637
REMARK  251  A    between atoms: _637  and  _638
REMARK  252  A    between atoms: _640  and  _642
REMARK  253  A    between atoms: _642  and  _643
REMARK  254  A    between atoms: _642  and  _645
REMARK  255  A    between atoms: _645  and  _646
REMARK  256  A    between atoms: _651  and  _652
REMARK  257  A    between atoms: _654  and  _656
REMARK  258  A    between atoms: _656  and  _657
REMARK  259  A    between atoms: _656  and  _659
REMARK  260  A    between atoms: _659  and  _660
REMARK  261  A    between atoms: _662  and  _664
REMARK  262  A    between atoms: _664  and  _665
REMARK                            x       y       z     vdW  Elec       q    Type
REMARK                         _______ _______ _______ _____ _____    ______ ____
ROOT
ATOM      1  O   HOH     1     -26.637  -9.659  17.876  0.00  0.00    +0.000 OA
ENDROOT
TORSDOF 0
