REMARK  Name = ../refined-set-2016/2uwd/2uwd_pocket.pdb
REMARK  226 active torsions:
REMARK  status: ('A' for Active; 'I' for Inactive)
REMARK    1  A    between atoms: _1  and  _3
REMARK    2  A    between atoms: _3  and  _4
REMARK    3  A    between atoms: _3  and  _6
REMARK    4  A    between atoms: _6  and  _7
REMARK    5  A    between atoms: _13  and  _15
REMARK    6  A    between atoms: _15  and  _16
REMARK    7  A    between atoms: _15  and  _18
REMARK    8  A    between atoms: _18  and  _19
REMARK    9  A    between atoms: _22  and  _24
REMARK   10  A    between atoms: _24  and  _25
REMARK   11  A    between atoms: _24  and  _27
REMARK   12  A    between atoms: _27  and  _28
REMARK   13  A    between atoms: _28  and  _29
REMARK   14  A    between atoms: _32  and  _34
REMARK   15  A    between atoms: _34  and  _35
REMARK   16  A    between atoms: _34  and  _37
REMARK   17  A    between atoms: _37  and  _38
REMARK   18  A    between atoms: _41  and  _43
REMARK   19  A    between atoms: _43  and  _44
REMARK   20  A    between atoms: _43  and  _46
REMARK   21  A    between atoms: _46  and  _47
REMARK   22  A    between atoms: _50  and  _52
REMARK   23  A    between atoms: _52  and  _53
REMARK   24  A    between atoms: _52  and  _55
REMARK   25  A    between atoms: _55  and  _56
REMARK   26  A    between atoms: _58  and  _60
REMARK   27  A    between atoms: _60  and  _61
REMARK   28  A    between atoms: _60  and  _63
REMARK   29  A    between atoms: _63  and  _64
REMARK   30  A    between atoms: _69  and  _71
REMARK   31  A    between atoms: _71  and  _72
REMARK   32  A    between atoms: _71  and  _74
REMARK   33  A    between atoms: _74  and  _75
REMARK   34  A    between atoms: _77  and  _79
REMARK   35  A    between atoms: _79  and  _80
REMARK   36  A    between atoms: _79  and  _82
REMARK   37  A    between atoms: _82  and  _83
REMARK   38  A    between atoms: _85  and  _87
REMARK   39  A    between atoms: _87  and  _88
REMARK   40  A    between atoms: _87  and  _90
REMARK   41  A    between atoms: _90  and  _91
REMARK   42  A    between atoms: _94  and  _96
REMARK   43  A    between atoms: _96  and  _97
REMARK   44  A    between atoms: _100  and  _102
REMARK   45  A    between atoms: _102  and  _103
REMARK   46  A    between atoms: _102  and  _105
REMARK   47  A    between atoms: _105  and  _106
REMARK   48  A    between atoms: _109  and  _111
REMARK   49  A    between atoms: _111  and  _112
REMARK   50  A    between atoms: _111  and  _114
REMARK   51  A    between atoms: _114  and  _115
REMARK   52  A    between atoms: _118  and  _120
REMARK   53  A    between atoms: _120  and  _121
REMARK   54  A    between atoms: _120  and  _123
REMARK   55  A    between atoms: _123  and  _124
REMARK   56  A    between atoms: _124  and  _125
REMARK   57  A    between atoms: _125  and  _126
REMARK   58  A    between atoms: _126  and  _127
REMARK   59  A    between atoms: _131  and  _133
REMARK   60  A    between atoms: _133  and  _134
REMARK   61  A    between atoms: _133  and  _136
REMARK   62  A    between atoms: _136  and  _137
REMARK   63  A    between atoms: _140  and  _142
REMARK   64  A    between atoms: _142  and  _143
REMARK   65  A    between atoms: _142  and  _145
REMARK   66  A    between atoms: _145  and  _146
REMARK   67  A    between atoms: _146  and  _147
REMARK   68  A    between atoms: _150  and  _152
REMARK   69  A    between atoms: _152  and  _153
REMARK   70  A    between atoms: _152  and  _155
REMARK   71  A    between atoms: _155  and  _156
REMARK   72  A    between atoms: _159  and  _161
REMARK   73  A    between atoms: _161  and  _162
REMARK   74  A    between atoms: _161  and  _164
REMARK   75  A    between atoms: _164  and  _165
REMARK   76  A    between atoms: _168  and  _170
REMARK   77  A    between atoms: _170  and  _171
REMARK   78  A    between atoms: _170  and  _173
REMARK   79  A    between atoms: _176  and  _178
REMARK   80  A    between atoms: _178  and  _179
REMARK   81  A    between atoms: _178  and  _181
REMARK   82  A    between atoms: _181  and  _182
REMARK   83  A    between atoms: _185  and  _187
REMARK   84  A    between atoms: _187  and  _188
REMARK   85  A    between atoms: _187  and  _190
REMARK   86  A    between atoms: _190  and  _191
REMARK   87  A    between atoms: _194  and  _196
REMARK   88  A    between atoms: _196  and  _197
REMARK   89  A    between atoms: _199  and  _201
REMARK   90  A    between atoms: _201  and  _202
REMARK   91  A    between atoms: _201  and  _204
REMARK   92  A    between atoms: _204  and  _205
REMARK   93  A    between atoms: _208  and  _210
REMARK   94  A    between atoms: _210  and  _211
REMARK   95  A    between atoms: _213  and  _215
REMARK   96  A    between atoms: _215  and  _216
REMARK   97  A    between atoms: _215  and  _218
REMARK   98  A    between atoms: _218  and  _219
REMARK   99  A    between atoms: _219  and  _220
REMARK  100  A    between atoms: _222  and  _224
REMARK  101  A    between atoms: _224  and  _225
REMARK  102  A    between atoms: _224  and  _227
REMARK  103  A    between atoms: _227  and  _228
REMARK  104  A    between atoms: _231  and  _233
REMARK  105  A    between atoms: _233  and  _234
REMARK  106  A    between atoms: _237  and  _239
REMARK  107  A    between atoms: _239  and  _240
REMARK  108  A    between atoms: _239  and  _242
REMARK  109  A    between atoms: _242  and  _243
REMARK  110  A    between atoms: _246  and  _248
REMARK  111  A    between atoms: _248  and  _249
REMARK  112  A    between atoms: _248  and  _251
REMARK  113  A    between atoms: _251  and  _252
REMARK  114  A    between atoms: _255  and  _257
REMARK  115  A    between atoms: _257  and  _258
REMARK  116  A    between atoms: _257  and  _260
REMARK  117  A    between atoms: _260  and  _261
REMARK  118  A    between atoms: _266  and  _268
REMARK  119  A    between atoms: _268  and  _269
REMARK  120  A    between atoms: _268  and  _271
REMARK  121  A    between atoms: _271  and  _272
REMARK  122  A    between atoms: _277  and  _279
REMARK  123  A    between atoms: _279  and  _280
REMARK  124  A    between atoms: _279  and  _282
REMARK  125  A    between atoms: _282  and  _283
REMARK  126  A    between atoms: _286  and  _288
REMARK  127  A    between atoms: _288  and  _289
REMARK  128  A    between atoms: _291  and  _293
REMARK  129  A    between atoms: _293  and  _294
REMARK  130  A    between atoms: _293  and  _296
REMARK  131  A    between atoms: _296  and  _297
REMARK  132  A    between atoms: _300  and  _302
REMARK  133  A    between atoms: _302  and  _303
REMARK  134  A    between atoms: _302  and  _305
REMARK  135  A    between atoms: _305  and  _306
REMARK  136  A    between atoms: _309  and  _311
REMARK  137  A    between atoms: _311  and  _312
REMARK  138  A    between atoms: _315  and  _317
REMARK  139  A    between atoms: _317  and  _318
REMARK  140  A    between atoms: _320  and  _322
REMARK  141  A    between atoms: _322  and  _323
REMARK  142  A    between atoms: _322  and  _325
REMARK  143  A    between atoms: _325  and  _326
REMARK  144  A    between atoms: _332  and  _334
REMARK  145  A    between atoms: _334  and  _335
REMARK  146  A    between atoms: _337  and  _339
REMARK  147  A    between atoms: _339  and  _340
REMARK  148  A    between atoms: _339  and  _342
REMARK  149  A    between atoms: _345  and  _347
REMARK  150  A    between atoms: _347  and  _348
REMARK  151  A    between atoms: _350  and  _352
REMARK  152  A    between atoms: _352  and  _353
REMARK  153  A    between atoms: _352  and  _355
REMARK  154  A    between atoms: _355  and  _356
REMARK  155  A    between atoms: _362  and  _364
REMARK  156  A    between atoms: _364  and  _365
REMARK  157  A    between atoms: _364  and  _367
REMARK  158  A    between atoms: _367  and  _368
REMARK  159  A    between atoms: _373  and  _374
REMARK  160  A    between atoms: _376  and  _378
REMARK  161  A    between atoms: _378  and  _379
REMARK  162  A    between atoms: _382  and  _384
REMARK  163  A    between atoms: _384  and  _385
REMARK  164  A    between atoms: _384  and  _387
REMARK  165  A    between atoms: _390  and  _392
REMARK  166  A    between atoms: _392  and  _393
REMARK  167  A    between atoms: _392  and  _395
REMARK  168  A    between atoms: _398  and  _400
REMARK  169  A    between atoms: _400  and  _401
REMARK  170  A    between atoms: _400  and  _403
REMARK  171  A    between atoms: _403  and  _404
REMARK  172  A    between atoms: _407  and  _409
REMARK  173  A    between atoms: _409  and  _410
REMARK  174  A    between atoms: _409  and  _412
REMARK  175  A    between atoms: _412  and  _413
REMARK  176  A    between atoms: _416  and  _418
REMARK  177  A    between atoms: _418  and  _419
REMARK  178  A    between atoms: _418  and  _421
REMARK  179  A    between atoms: _421  and  _422
REMARK  180  A    between atoms: _422  and  _423
REMARK  181  A    between atoms: _423  and  _424
REMARK  182  A    between atoms: _424  and  _425
REMARK  183  A    between atoms: _429  and  _431
REMARK  184  A    between atoms: _431  and  _432
REMARK  185  A    between atoms: _431  and  _434
REMARK  186  A    between atoms: _434  and  _435
REMARK  187  A    between atoms: _440  and  _442
REMARK  188  A    between atoms: _442  and  _443
REMARK  189  A    between atoms: _445  and  _447
REMARK  190  A    between atoms: _447  and  _448
REMARK  191  A    between atoms: _447  and  _450
REMARK  192  A    between atoms: _450  and  _451
REMARK  193  A    between atoms: _454  and  _456
REMARK  194  A    between atoms: _456  and  _457
REMARK  195  A    between atoms: _456  and  _459
REMARK  196  A    between atoms: _459  and  _460
REMARK  197  A    between atoms: _460  and  _461
REMARK  198  A    between atoms: _461  and  _462
REMARK  199  A    between atoms: _462  and  _463
REMARK  200  A    between atoms: _467  and  _469
REMARK  201  A    between atoms: _469  and  _470
REMARK  202  A    between atoms: _469  and  _472
REMARK  203  A    between atoms: _475  and  _477
REMARK  204  A    between atoms: _477  and  _478
REMARK  205  A    between atoms: _477  and  _480
REMARK  206  A    between atoms: _480  and  _481
REMARK  207  A    between atoms: _484  and  _486
REMARK  208  A    between atoms: _486  and  _487
REMARK  209  A    between atoms: _486  and  _489
REMARK  210  A    between atoms: _489  and  _490
REMARK  211  A    between atoms: _493  and  _495
REMARK  212  A    between atoms: _495  and  _496
REMARK  213  A    between atoms: _495  and  _498
REMARK  214  A    between atoms: _498  and  _499
REMARK  215  A    between atoms: _502  and  _504
REMARK  216  A    between atoms: _504  and  _505
REMARK  217  A    between atoms: _504  and  _507
REMARK  218  A    between atoms: _507  and  _508
REMARK  219  A    between atoms: _508  and  _509
REMARK  220  A    between atoms: _509  and  _510
REMARK  221  A    between atoms: _510  and  _511
REMARK  222  A    between atoms: _515  and  _517
REMARK  223  A    between atoms: _517  and  _518
REMARK  224  A    between atoms: _517  and  _520
REMARK  225  A    between atoms: _520  and  _521
REMARK  226  A    between atoms: _526  and  _527
REMARK                            x       y       z     vdW  Elec       q    Type
REMARK                         _______ _______ _______ _____ _____    ______ ____
ROOT
ATOM      1  C   PHE A   1      31.788  13.742  12.718  0.00  0.00    +0.239 C 
ATOM      2  O   PHE A   1      31.729  13.388  13.899  0.00  0.00    -0.274 OA
ATOM      3  N   LEU A   2      30.698  13.921  11.963  0.00  0.00    -0.298 N 
ATOM      4  H   LEU A   2      30.805  14.161  10.957  0.00  0.00    +0.150 HD
ENDROOT
BRANCH   1   5
ATOM      5  CA  PHE A   1      33.131  14.051  12.044  0.00  0.00    +0.149 C 
BRANCH   5   6
ATOM      6  N   PHE A   1      33.127  13.615  10.612  0.00  0.00    -0.238 NA
ATOM      7  H   PHE A   1      33.392  14.301   9.877  0.00  0.00    +0.142 HD
ENDBRANCH   5   6
BRANCH   5   8
ATOM      8  CB  PHE A   1      33.428  15.564  12.172  0.00  0.00    +0.053 C 
BRANCH   8   9
ATOM      9  CG  PHE A   1      32.202  16.439  11.974  0.00  0.00    -0.020 A 
ATOM     10  CD2 PHE A   1      31.378  16.812  13.066  0.00  0.00    -0.004 A 
ATOM     11  CE2 PHE A   1      30.217  17.567  12.854  0.00  0.00    -0.000 A 
ATOM     12  CZ  PHE A   1      29.886  18.000  11.556  0.00  0.00    -0.000 A 
ATOM     13  CE1 PHE A   1      30.708  17.654  10.482  0.00  0.00    -0.000 A 
ATOM     14  CD1 PHE A   1      31.853  16.867  10.703  0.00  0.00    -0.004 A 
ENDBRANCH   8   9
ENDBRANCH   5   8
ENDBRANCH   1   5
BRANCH   3  15
ATOM     15  CA  LEU A   2      29.373  13.785  12.528  0.00  0.00    +0.137 C 
BRANCH  15  16
ATOM     16  C   LEU A   2      29.083  12.333  12.856  0.00  0.00    +0.227 C 
ATOM     17  O   LEU A   2      28.587  12.035  13.952  0.00  0.00    -0.286 OA
ENDBRANCH  15  16
BRANCH  15  18
ATOM     18  CB  LEU A   2      28.293  14.384  11.606  0.00  0.00    +0.028 C 
BRANCH  18  19
ATOM     19  CG  LEU A   2      26.902  14.313  12.238  0.00  0.00    +0.002 C 
ATOM     20  CD2 LEU A   2      26.845  15.080  13.604  0.00  0.00    +0.000 C 
ATOM     21  CD1 LEU A   2      25.802  14.808  11.270  0.00  0.00    +0.000 C 
ENDBRANCH  18  19
ENDBRANCH  15  18
ENDBRANCH   3  15
TORSDOF 8
REMARK  Name = ../refined-set-2016/2uwd/2uwd_pocket.pdb
REMARK  226 active torsions:
REMARK  status: ('A' for Active; 'I' for Inactive)
REMARK    1  A    between atoms: _1  and  _3
REMARK    2  A    between atoms: _3  and  _4
REMARK    3  A    between atoms: _3  and  _6
REMARK    4  A    between atoms: _6  and  _7
REMARK    5  A    between atoms: _13  and  _15
REMARK    6  A    between atoms: _15  and  _16
REMARK    7  A    between atoms: _15  and  _18
REMARK    8  A    between atoms: _18  and  _19
REMARK    9  A    between atoms: _22  and  _24
REMARK   10  A    between atoms: _24  and  _25
REMARK   11  A    between atoms: _24  and  _27
REMARK   12  A    between atoms: _27  and  _28
REMARK   13  A    between atoms: _28  and  _29
REMARK   14  A    between atoms: _32  and  _34
REMARK   15  A    between atoms: _34  and  _35
REMARK   16  A    between atoms: _34  and  _37
REMARK   17  A    between atoms: _37  and  _38
REMARK   18  A    between atoms: _41  and  _43
REMARK   19  A    between atoms: _43  and  _44
REMARK   20  A    between atoms: _43  and  _46
REMARK   21  A    between atoms: _46  and  _47
REMARK   22  A    between atoms: _50  and  _52
REMARK   23  A    between atoms: _52  and  _53
REMARK   24  A    between atoms: _52  and  _55
REMARK   25  A    between atoms: _55  and  _56
REMARK   26  A    between atoms: _58  and  _60
REMARK   27  A    between atoms: _60  and  _61
REMARK   28  A    between atoms: _60  and  _63
REMARK   29  A    between atoms: _63  and  _64
REMARK   30  A    between atoms: _69  and  _71
REMARK   31  A    between atoms: _71  and  _72
REMARK   32  A    between atoms: _71  and  _74
REMARK   33  A    between atoms: _74  and  _75
REMARK   34  A    between atoms: _77  and  _79
REMARK   35  A    between atoms: _79  and  _80
REMARK   36  A    between atoms: _79  and  _82
REMARK   37  A    between atoms: _82  and  _83
REMARK   38  A    between atoms: _85  and  _87
REMARK   39  A    between atoms: _87  and  _88
REMARK   40  A    between atoms: _87  and  _90
REMARK   41  A    between atoms: _90  and  _91
REMARK   42  A    between atoms: _94  and  _96
REMARK   43  A    between atoms: _96  and  _97
REMARK   44  A    between atoms: _100  and  _102
REMARK   45  A    between atoms: _102  and  _103
REMARK   46  A    between atoms: _102  and  _105
REMARK   47  A    between atoms: _105  and  _106
REMARK   48  A    between atoms: _109  and  _111
REMARK   49  A    between atoms: _111  and  _112
REMARK   50  A    between atoms: _111  and  _114
REMARK   51  A    between atoms: _114  and  _115
REMARK   52  A    between atoms: _118  and  _120
REMARK   53  A    between atoms: _120  and  _121
REMARK   54  A    between atoms: _120  and  _123
REMARK   55  A    between atoms: _123  and  _124
REMARK   56  A    between atoms: _124  and  _125
REMARK   57  A    between atoms: _125  and  _126
REMARK   58  A    between atoms: _126  and  _127
REMARK   59  A    between atoms: _131  and  _133
REMARK   60  A    between atoms: _133  and  _134
REMARK   61  A    between atoms: _133  and  _136
REMARK   62  A    between atoms: _136  and  _137
REMARK   63  A    between atoms: _140  and  _142
REMARK   64  A    between atoms: _142  and  _143
REMARK   65  A    between atoms: _142  and  _145
REMARK   66  A    between atoms: _145  and  _146
REMARK   67  A    between atoms: _146  and  _147
REMARK   68  A    between atoms: _150  and  _152
REMARK   69  A    between atoms: _152  and  _153
REMARK   70  A    between atoms: _152  and  _155
REMARK   71  A    between atoms: _155  and  _156
REMARK   72  A    between atoms: _159  and  _161
REMARK   73  A    between atoms: _161  and  _162
REMARK   74  A    between atoms: _161  and  _164
REMARK   75  A    between atoms: _164  and  _165
REMARK   76  A    between atoms: _168  and  _170
REMARK   77  A    between atoms: _170  and  _171
REMARK   78  A    between atoms: _170  and  _173
REMARK   79  A    between atoms: _176  and  _178
REMARK   80  A    between atoms: _178  and  _179
REMARK   81  A    between atoms: _178  and  _181
REMARK   82  A    between atoms: _181  and  _182
REMARK   83  A    between atoms: _185  and  _187
REMARK   84  A    between atoms: _187  and  _188
REMARK   85  A    between atoms: _187  and  _190
REMARK   86  A    between atoms: _190  and  _191
REMARK   87  A    between atoms: _194  and  _196
REMARK   88  A    between atoms: _196  and  _197
REMARK   89  A    between atoms: _199  and  _201
REMARK   90  A    between atoms: _201  and  _202
REMARK   91  A    between atoms: _201  and  _204
REMARK   92  A    between atoms: _204  and  _205
REMARK   93  A    between atoms: _208  and  _210
REMARK   94  A    between atoms: _210  and  _211
REMARK   95  A    between atoms: _213  and  _215
REMARK   96  A    between atoms: _215  and  _216
REMARK   97  A    between atoms: _215  and  _218
REMARK   98  A    between atoms: _218  and  _219
REMARK   99  A    between atoms: _219  and  _220
REMARK  100  A    between atoms: _222  and  _224
REMARK  101  A    between atoms: _224  and  _225
REMARK  102  A    between atoms: _224  and  _227
REMARK  103  A    between atoms: _227  and  _228
REMARK  104  A    between atoms: _231  and  _233
REMARK  105  A    between atoms: _233  and  _234
REMARK  106  A    between atoms: _237  and  _239
REMARK  107  A    between atoms: _239  and  _240
REMARK  108  A    between atoms: _239  and  _242
REMARK  109  A    between atoms: _242  and  _243
REMARK  110  A    between atoms: _246  and  _248
REMARK  111  A    between atoms: _248  and  _249
REMARK  112  A    between atoms: _248  and  _251
REMARK  113  A    between atoms: _251  and  _252
REMARK  114  A    between atoms: _255  and  _257
REMARK  115  A    between atoms: _257  and  _258
REMARK  116  A    between atoms: _257  and  _260
REMARK  117  A    between atoms: _260  and  _261
REMARK  118  A    between atoms: _266  and  _268
REMARK  119  A    between atoms: _268  and  _269
REMARK  120  A    between atoms: _268  and  _271
REMARK  121  A    between atoms: _271  and  _272
REMARK  122  A    between atoms: _277  and  _279
REMARK  123  A    between atoms: _279  and  _280
REMARK  124  A    between atoms: _279  and  _282
REMARK  125  A    between atoms: _282  and  _283
REMARK  126  A    between atoms: _286  and  _288
REMARK  127  A    between atoms: _288  and  _289
REMARK  128  A    between atoms: _291  and  _293
REMARK  129  A    between atoms: _293  and  _294
REMARK  130  A    between atoms: _293  and  _296
REMARK  131  A    between atoms: _296  and  _297
REMARK  132  A    between atoms: _300  and  _302
REMARK  133  A    between atoms: _302  and  _303
REMARK  134  A    between atoms: _302  and  _305
REMARK  135  A    between atoms: _305  and  _306
REMARK  136  A    between atoms: _309  and  _311
REMARK  137  A    between atoms: _311  and  _312
REMARK  138  A    between atoms: _315  and  _317
REMARK  139  A    between atoms: _317  and  _318
REMARK  140  A    between atoms: _320  and  _322
REMARK  141  A    between atoms: _322  and  _323
REMARK  142  A    between atoms: _322  and  _325
REMARK  143  A    between atoms: _325  and  _326
REMARK  144  A    between atoms: _332  and  _334
REMARK  145  A    between atoms: _334  and  _335
REMARK  146  A    between atoms: _337  and  _339
REMARK  147  A    between atoms: _339  and  _340
REMARK  148  A    between atoms: _339  and  _342
REMARK  149  A    between atoms: _345  and  _347
REMARK  150  A    between atoms: _347  and  _348
REMARK  151  A    between atoms: _350  and  _352
REMARK  152  A    between atoms: _352  and  _353
REMARK  153  A    between atoms: _352  and  _355
REMARK  154  A    between atoms: _355  and  _356
REMARK  155  A    between atoms: _362  and  _364
REMARK  156  A    between atoms: _364  and  _365
REMARK  157  A    between atoms: _364  and  _367
REMARK  158  A    between atoms: _367  and  _368
REMARK  159  A    between atoms: _373  and  _374
REMARK  160  A    between atoms: _376  and  _378
REMARK  161  A    between atoms: _378  and  _379
REMARK  162  A    between atoms: _382  and  _384
REMARK  163  A    between atoms: _384  and  _385
REMARK  164  A    between atoms: _384  and  _387
REMARK  165  A    between atoms: _390  and  _392
REMARK  166  A    between atoms: _392  and  _393
REMARK  167  A    between atoms: _392  and  _395
REMARK  168  A    between atoms: _398  and  _400
REMARK  169  A    between atoms: _400  and  _401
REMARK  170  A    between atoms: _400  and  _403
REMARK  171  A    between atoms: _403  and  _404
REMARK  172  A    between atoms: _407  and  _409
REMARK  173  A    between atoms: _409  and  _410
REMARK  174  A    between atoms: _409  and  _412
REMARK  175  A    between atoms: _412  and  _413
REMARK  176  A    between atoms: _416  and  _418
REMARK  177  A    between atoms: _418  and  _419
REMARK  178  A    between atoms: _418  and  _421
REMARK  179  A    between atoms: _421  and  _422
REMARK  180  A    between atoms: _422  and  _423
REMARK  181  A    between atoms: _423  and  _424
REMARK  182  A    between atoms: _424  and  _425
REMARK  183  A    between atoms: _429  and  _431
REMARK  184  A    between atoms: _431  and  _432
REMARK  185  A    between atoms: _431  and  _434
REMARK  186  A    between atoms: _434  and  _435
REMARK  187  A    between atoms: _440  and  _442
REMARK  188  A    between atoms: _442  and  _443
REMARK  189  A    between atoms: _445  and  _447
REMARK  190  A    between atoms: _447  and  _448
REMARK  191  A    between atoms: _447  and  _450
REMARK  192  A    between atoms: _450  and  _451
REMARK  193  A    between atoms: _454  and  _456
REMARK  194  A    between atoms: _456  and  _457
REMARK  195  A    between atoms: _456  and  _459
REMARK  196  A    between atoms: _459  and  _460
REMARK  197  A    between atoms: _460  and  _461
REMARK  198  A    between atoms: _461  and  _462
REMARK  199  A    between atoms: _462  and  _463
REMARK  200  A    between atoms: _467  and  _469
REMARK  201  A    between atoms: _469  and  _470
REMARK  202  A    between atoms: _469  and  _472
REMARK  203  A    between atoms: _475  and  _477
REMARK  204  A    between atoms: _477  and  _478
REMARK  205  A    between atoms: _477  and  _480
REMARK  206  A    between atoms: _480  and  _481
REMARK  207  A    between atoms: _484  and  _486
REMARK  208  A    between atoms: _486  and  _487
REMARK  209  A    between atoms: _486  and  _489
REMARK  210  A    between atoms: _489  and  _490
REMARK  211  A    between atoms: _493  and  _495
REMARK  212  A    between atoms: _495  and  _496
REMARK  213  A    between atoms: _495  and  _498
REMARK  214  A    between atoms: _498  and  _499
REMARK  215  A    between atoms: _502  and  _504
REMARK  216  A    between atoms: _504  and  _505
REMARK  217  A    between atoms: _504  and  _507
REMARK  218  A    between atoms: _507  and  _508
REMARK  219  A    between atoms: _508  and  _509
REMARK  220  A    between atoms: _509  and  _510
REMARK  221  A    between atoms: _510  and  _511
REMARK  222  A    between atoms: _515  and  _517
REMARK  223  A    between atoms: _517  and  _518
REMARK  224  A    between atoms: _517  and  _520
REMARK  225  A    between atoms: _520  and  _521
REMARK  226  A    between atoms: _526  and  _527
REMARK                            x       y       z     vdW  Elec       q    Type
REMARK                         _______ _______ _______ _____ _____    ______ ____
ROOT
ATOM      1  CA  SER A   7      25.612   5.526  20.646  0.00  0.00    +0.178 C 
ENDROOT
BRANCH   1   2
ATOM      2  C   SER A   7      26.359   4.544  21.602  0.00  0.00    +0.243 C 
ATOM      3  O   SER A   7      25.709   3.792  22.311  0.00  0.00    -0.273 OA
ATOM      4  N   ASP A   8      27.700   4.551  21.613  0.00  0.00    -0.296 N 
ATOM      5  H   ASP A   8      28.220   5.124  20.918  0.00  0.00    +0.150 HD
BRANCH   4   6
ATOM      6  CA  ASP A   8      28.447   3.744  22.614  0.00  0.00    +0.160 C 
BRANCH   6   7
ATOM      7  C   ASP A   8      28.087   4.118  24.085  0.00  0.00    +0.241 C 
ATOM      8  O   ASP A   8      27.935   3.247  24.931  0.00  0.00    -0.273 OA
ATOM      9  N   ALA A   9      27.959   5.419  24.382  0.00  0.00    -0.297 N 
ATOM     10  H   ALA A   9      28.119   6.133  23.643  0.00  0.00    +0.150 HD
BRANCH   9  11
ATOM     11  CA  ALA A   9      27.593   5.852  25.746  0.00  0.00    +0.149 C 
ATOM     12  CB  ALA A   9      27.847   7.383  25.900  0.00  0.00    +0.031 C 
BRANCH  11  13
ATOM     13  C   ALA A   9      26.145   5.471  26.116  0.00  0.00    +0.241 C 
ATOM     14  O   ALA A   9      25.826   5.217  27.305  0.00  0.00    -0.273 OA
ATOM     15  N   LEU A  10      25.282   5.448  25.105  0.00  0.00    -0.297 N 
ATOM     16  H   LEU A  10      25.628   5.705  24.158  0.00  0.00    +0.150 HD
BRANCH  15  17
ATOM     17  CA  LEU A  10      23.846   5.075  25.252  0.00  0.00    +0.149 C 
BRANCH  17  18
ATOM     18  C   LEU A  10      23.701   3.574  25.510  0.00  0.00    +0.241 C 
ATOM     19  O   LEU A  10      22.925   3.185  26.395  0.00  0.00    -0.273 OA
ATOM     20  N   ASP A  11      24.465   2.759  24.765  0.00  0.00    -0.297 N 
ATOM     21  H   ASP A  11      24.965   3.171  23.952  0.00  0.00    +0.150 HD
BRANCH  20  22
ATOM     22  CA  ASP A  11      24.641   1.325  25.023  0.00  0.00    +0.160 C 
BRANCH  22  23
ATOM     23  C   ASP A  11      25.044   1.066  26.489  0.00  0.00    +0.241 C 
ATOM     24  O   ASP A  11      24.518   0.157  27.123  0.00  0.00    -0.273 OA
ATOM     25  N   LYS A  12      26.006   1.848  27.004  0.00  0.00    -0.297 N 
ATOM     26  H   LYS A  12      26.395   2.619  26.424  0.00  0.00    +0.150 HD
BRANCH  25  27
ATOM     27  CA  LYS A  12      26.524   1.646  28.362  0.00  0.00    +0.149 C 
BRANCH  27  28
ATOM     28  C   LYS A  12      25.520   1.890  29.491  0.00  0.00    +0.241 C 
ATOM     29  O   LYS A  12      25.440   1.080  30.437  0.00  0.00    -0.273 OA
ATOM     30  N   ILE A  13      24.794   3.003  29.425  0.00  0.00    -0.298 N 
ATOM     31  H   ILE A  13      24.996   3.711  28.691  0.00  0.00    +0.150 HD
BRANCH  30  32
ATOM     32  CA  ILE A  13      23.713   3.233  30.382  0.00  0.00    +0.137 C 
BRANCH  32  33
ATOM     33  C   ILE A  13      22.567   2.216  30.247  0.00  0.00    +0.227 C 
ATOM     34  O   ILE A  13      22.044   1.754  31.260  0.00  0.00    -0.286 OA
ENDBRANCH  32  33
BRANCH  32  35
ATOM     35  CB  ILE A  13      23.208   4.727  30.439  0.00  0.00    +0.026 C 
ATOM     36  CG2 ILE A  13      22.477   5.168  29.136  0.00  0.00    +0.002 C 
BRANCH  35  37
ATOM     37  CG1 ILE A  13      22.334   4.971  31.686  0.00  0.00    +0.002 C 
ATOM     38  CD1 ILE A  13      23.083   4.855  33.062  0.00  0.00    +0.000 C 
ENDBRANCH  35  37
ENDBRANCH  32  35
ENDBRANCH  30  32
ENDBRANCH  27  28
BRANCH  27  39
ATOM     39  CB  LYS A  12      27.795   2.476  28.600  0.00  0.00    +0.029 C 
BRANCH  39  40
ATOM     40  CG  LYS A  12      29.022   1.947  27.904  0.00  0.00    +0.000 C 
BRANCH  40  41
ATOM     41  CD  LYS A  12      30.221   2.854  28.190  0.00  0.00    -0.024 C 
BRANCH  41  42
ATOM     42  CE  LYS A  12      31.490   2.058  28.065  0.00  0.00    -0.086 C 
BRANCH  42  43
ATOM     43  NZ  LYS A  12      31.950   2.012  26.672  0.00  0.00    +0.380 N 
ATOM     44  HZ1 LYS A  12      32.827   1.456  26.616  0.00  0.00    -0.089 HD
ATOM     45  HZ2 LYS A  12      32.129   2.980  26.335  0.00  0.00    -0.089 HD
ATOM     46  HZ3 LYS A  12      31.218   1.568  26.081  0.00  0.00    -0.089 HD
ENDBRANCH  42  43
ENDBRANCH  41  42
ENDBRANCH  40  41
ENDBRANCH  39  40
ENDBRANCH  27  39
ENDBRANCH  25  27
ENDBRANCH  22  23
BRANCH  22  47
ATOM     47  CB  ASP A  11      25.712   0.680  24.105  0.00  0.00    +0.143 C 
BRANCH  47  48
ATOM     48  CG  ASP A  11      25.280   0.546  22.625  0.00  0.00    +0.367 C 
ATOM     49  OD2 ASP A  11      24.105   0.730  22.262  0.00  0.00    -0.246 OA
ATOM     50  OD1 ASP A  11      26.168   0.290  21.787  0.00  0.00    -0.246 OA
ENDBRANCH  47  48
ENDBRANCH  22  47
ENDBRANCH  20  22
ENDBRANCH  17  18
BRANCH  17  51
ATOM     51  CB  LEU A  10      22.979   5.532  24.062  0.00  0.00    +0.029 C 
BRANCH  51  52
ATOM     52  CG  LEU A  10      22.659   7.032  23.972  0.00  0.00    +0.002 C 
ATOM     53  CD2 LEU A  10      21.554   7.463  24.972  0.00  0.00    +0.000 C 
ATOM     54  CD1 LEU A  10      22.311   7.451  22.504  0.00  0.00    +0.000 C 
ENDBRANCH  51  52
ENDBRANCH  17  51
ENDBRANCH  15  17
ENDBRANCH  11  13
ENDBRANCH   9  11
ENDBRANCH   6   7
BRANCH   6  55
ATOM     55  CB  ASP A   8      29.969   3.836  22.441  0.00  0.00    +0.143 C 
BRANCH  55  56
ATOM     56  CG  ASP A   8      30.480   3.291  21.105  0.00  0.00    +0.367 C 
ATOM     57  OD2 ASP A   8      31.639   3.633  20.782  0.00  0.00    -0.246 OA
ATOM     58  OD1 ASP A   8      29.771   2.551  20.382  0.00  0.00    -0.246 OA
ENDBRANCH  55  56
ENDBRANCH   6  55
ENDBRANCH   4   6
ENDBRANCH   1   2
BRANCH   1  61
ATOM     59  C   SER A   6      26.241   7.609  21.805  0.00  0.00    +0.243 C 
ATOM     60  O   SER A   6      25.824   7.222  22.886  0.00  0.00    -0.273 OA
ATOM     61  N   SER A   7      26.179   6.887  20.678  0.00  0.00    -0.295 N 
ATOM     62  H   SER A   7      26.543   7.300  19.796  0.00  0.00    +0.150 HD
BRANCH  59  63
ATOM     63  CA  SER A   6      26.932   8.970  21.684  0.00  0.00    +0.178 C 
BRANCH  63  66
ATOM     64  C   ASN A   5      29.165   8.011  21.415  0.00  0.00    +0.241 C 
ATOM     65  O   ASN A   5      29.088   7.450  22.499  0.00  0.00    -0.273 OA
ATOM     66  N   SER A   6      28.196   8.797  20.957  0.00  0.00    -0.295 N 
ATOM     67  H   SER A   6      28.337   9.303  20.059  0.00  0.00    +0.150 HD
BRANCH  64  68
ATOM     68  CA  ASN A   5      30.447   7.895  20.538  0.00  0.00    +0.158 C 
BRANCH  68  71
ATOM     69  C   SER A   4      29.348   6.733  18.692  0.00  0.00    +0.243 C 
ATOM     70  O   SER A   4      28.955   5.811  19.423  0.00  0.00    -0.273 OA
ATOM     71  N   ASN A   5      30.117   7.727  19.123  0.00  0.00    -0.297 N 
ATOM     72  H   ASN A   5      30.496   8.407  18.433  0.00  0.00    +0.150 HD
BRANCH  69  73
ATOM     73  CA  SER A   4      28.958   6.783  17.183  0.00  0.00    +0.178 C 
BRANCH  73  76
ATOM     74  C   ILE A   3      27.433   8.680  17.267  0.00  0.00    +0.241 C 
ATOM     75  O   ILE A   3      26.724   8.120  18.096  0.00  0.00    -0.273 OA
ATOM     76  N   SER A   4      28.525   8.113  16.754  0.00  0.00    -0.295 N 
ATOM     77  H   SER A   4      29.078   8.624  16.037  0.00  0.00    +0.150 HD
BRANCH  74  78
ATOM     78  CA  ILE A   3      27.082  10.102  16.791  0.00  0.00    +0.149 C 
BRANCH  78  81
ATOM     79  C   LEU A   2      29.085  11.148  17.671  0.00  0.00    +0.241 C 
ATOM     80  O   LEU A   2      28.798  10.841  18.848  0.00  0.00    -0.273 OA
ATOM     81  N   ILE A   3      28.269  10.933  16.650  0.00  0.00    -0.297 N 
ATOM     82  H   ILE A   3      28.481  11.367  15.729  0.00  0.00    +0.150 HD
BRANCH  79  83
ATOM     83  CA  LEU A   2      30.422  11.824  17.321  0.00  0.00    +0.149 C 
BRANCH  83  86
ATOM     84  C   GLU A   1      31.612  10.170  16.000  0.00  0.00    +0.238 C 
ATOM     85  O   GLU A   1      31.680   9.446  16.987  0.00  0.00    -0.274 OA
ATOM     86  N   LEU A   2      31.017  11.362  16.047  0.00  0.00    -0.297 N 
ATOM     87  H   LEU A   2      30.971  11.961  15.198  0.00  0.00    +0.150 HD
BRANCH  84  88
ATOM     88  CA  GLU A   1      32.237   9.742  14.680  0.00  0.00    +0.145 C 
BRANCH  88  89
ATOM     89  N   GLU A   1      31.374  10.070  13.514  0.00  0.00    -0.238 NA
ATOM     90  H   GLU A   1      31.734  10.706  12.774  0.00  0.00    +0.142 HD
ENDBRANCH  88  89
BRANCH  88  91
ATOM     91  CB  GLU A   1      33.666  10.368  14.558  0.00  0.00    +0.038 C 
BRANCH  91  92
ATOM     92  CG  GLU A   1      34.568   9.836  13.421  0.00  0.00    +0.116 C 
BRANCH  92  93
ATOM     93  CD  GLU A   1      34.568   8.320  13.270  0.00  0.00    +0.365 C 
ATOM     94  OE2 GLU A   1      34.580   7.593  14.273  0.00  0.00    -0.246 OA
ATOM     95  OE1 GLU A   1      34.526   7.843  12.119  0.00  0.00    -0.246 OA
ENDBRANCH  92  93
ENDBRANCH  91  92
ENDBRANCH  88  91
ENDBRANCH  84  88
ENDBRANCH  83  86
BRANCH  83  96
ATOM     96  CB  LEU A   2      30.292  13.341  17.318  0.00  0.00    +0.029 C 
BRANCH  96  97
ATOM     97  CG  LEU A   2      31.593  14.145  17.172  0.00  0.00    +0.002 C 
ATOM     98  CD2 LEU A   2      32.557  13.910  18.390  0.00  0.00    +0.000 C 
ATOM     99  CD1 LEU A   2      31.197  15.608  16.952  0.00  0.00    +0.000 C 
ENDBRANCH  96  97
ENDBRANCH  83  96
ENDBRANCH  79  83
ENDBRANCH  78  81
BRANCH  78 100
ATOM    100  CB  ILE A   3      26.236  10.092  15.511  0.00  0.00    +0.027 C 
ATOM    101  CG2 ILE A   3      25.178   8.913  15.545  0.00  0.00    +0.002 C 
BRANCH 100 102
ATOM    102  CG1 ILE A   3      25.592  11.482  15.302  0.00  0.00    +0.002 C 
ATOM    103  CD1 ILE A   3      24.743  11.574  14.022  0.00  0.00    +0.000 C 
ENDBRANCH 100 102
ENDBRANCH  78 100
ENDBRANCH  74  78
ENDBRANCH  73  76
BRANCH  73 104
ATOM    104  CB  SER A   4      30.051   6.268  16.237  0.00  0.00    +0.166 C 
BRANCH 104 105
ATOM    105  OG  SER A   4      30.743   5.141  16.707  0.00  0.00    -0.380 OA
ATOM    106  H   SER A   4      31.184   5.360  17.566  0.00  0.00    +0.211 HD
ENDBRANCH 104 105
ENDBRANCH  73 104
ENDBRANCH  69  73
ENDBRANCH  68  71
BRANCH  68 107
ATOM    107  CB  ASN A   5      31.339   9.145  20.699  0.00  0.00    +0.114 C 
BRANCH 107 108
ATOM    108  CG  ASN A   5      32.816   8.889  20.294  0.00  0.00    +0.222 C 
ATOM    109  ND2 ASN A   5      33.668   9.885  20.527  0.00  0.00    -0.329 N 
ATOM    110 HD21 ASN A   5      33.328  10.772  20.951  0.00  0.00    +0.145 HD
ATOM    111 HD22 ASN A   5      34.674   9.777  20.285  0.00  0.00    +0.145 HD
ATOM    112  OD1 ASN A   5      33.175   7.824  19.794  0.00  0.00    -0.275 OA
ENDBRANCH 107 108
ENDBRANCH  68 107
ENDBRANCH  64  68
ENDBRANCH  63  66
BRANCH  63 113
ATOM    113  CB  SER A   6      26.007   9.965  20.990  0.00  0.00    +0.166 C 
BRANCH 113 114
ATOM    114  OG  SER A   6      26.531  11.293  21.050  0.00  0.00    -0.380 OA
ATOM    115  H   SER A   6      26.632  11.564  21.997  0.00  0.00    +0.211 HD
ENDBRANCH 113 114
ENDBRANCH  63 113
ENDBRANCH  59  63
ENDBRANCH   1  61
BRANCH   1 116
ATOM    116  CB  SER A   7      25.594   4.952  19.215  0.00  0.00    +0.166 C 
BRANCH 116 117
ATOM    117  OG  SER A   7      25.127   3.596  19.276  0.00  0.00    -0.380 OA
ATOM    118  H   SER A   7      25.736   3.064  19.847  0.00  0.00    +0.211 HD
ENDBRANCH 116 117
ENDBRANCH   1 116
TORSDOF 54
REMARK  Name = ../refined-set-2016/2uwd/2uwd_pocket.pdb
REMARK  226 active torsions:
REMARK  status: ('A' for Active; 'I' for Inactive)
REMARK    1  A    between atoms: _1  and  _3
REMARK    2  A    between atoms: _3  and  _4
REMARK    3  A    between atoms: _3  and  _6
REMARK    4  A    between atoms: _6  and  _7
REMARK    5  A    between atoms: _13  and  _15
REMARK    6  A    between atoms: _15  and  _16
REMARK    7  A    between atoms: _15  and  _18
REMARK    8  A    between atoms: _18  and  _19
REMARK    9  A    between atoms: _22  and  _24
REMARK   10  A    between atoms: _24  and  _25
REMARK   11  A    between atoms: _24  and  _27
REMARK   12  A    between atoms: _27  and  _28
REMARK   13  A    between atoms: _28  and  _29
REMARK   14  A    between atoms: _32  and  _34
REMARK   15  A    between atoms: _34  and  _35
REMARK   16  A    between atoms: _34  and  _37
REMARK   17  A    between atoms: _37  and  _38
REMARK   18  A    between atoms: _41  and  _43
REMARK   19  A    between atoms: _43  and  _44
REMARK   20  A    between atoms: _43  and  _46
REMARK   21  A    between atoms: _46  and  _47
REMARK   22  A    between atoms: _50  and  _52
REMARK   23  A    between atoms: _52  and  _53
REMARK   24  A    between atoms: _52  and  _55
REMARK   25  A    between atoms: _55  and  _56
REMARK   26  A    between atoms: _58  and  _60
REMARK   27  A    between atoms: _60  and  _61
REMARK   28  A    between atoms: _60  and  _63
REMARK   29  A    between atoms: _63  and  _64
REMARK   30  A    between atoms: _69  and  _71
REMARK   31  A    between atoms: _71  and  _72
REMARK   32  A    between atoms: _71  and  _74
REMARK   33  A    between atoms: _74  and  _75
REMARK   34  A    between atoms: _77  and  _79
REMARK   35  A    between atoms: _79  and  _80
REMARK   36  A    between atoms: _79  and  _82
REMARK   37  A    between atoms: _82  and  _83
REMARK   38  A    between atoms: _85  and  _87
REMARK   39  A    between atoms: _87  and  _88
REMARK   40  A    between atoms: _87  and  _90
REMARK   41  A    between atoms: _90  and  _91
REMARK   42  A    between atoms: _94  and  _96
REMARK   43  A    between atoms: _96  and  _97
REMARK   44  A    between atoms: _100  and  _102
REMARK   45  A    between atoms: _102  and  _103
REMARK   46  A    between atoms: _102  and  _105
REMARK   47  A    between atoms: _105  and  _106
REMARK   48  A    between atoms: _109  and  _111
REMARK   49  A    between atoms: _111  and  _112
REMARK   50  A    between atoms: _111  and  _114
REMARK   51  A    between atoms: _114  and  _115
REMARK   52  A    between atoms: _118  and  _120
REMARK   53  A    between atoms: _120  and  _121
REMARK   54  A    between atoms: _120  and  _123
REMARK   55  A    between atoms: _123  and  _124
REMARK   56  A    between atoms: _124  and  _125
REMARK   57  A    between atoms: _125  and  _126
REMARK   58  A    between atoms: _126  and  _127
REMARK   59  A    between atoms: _131  and  _133
REMARK   60  A    between atoms: _133  and  _134
REMARK   61  A    between atoms: _133  and  _136
REMARK   62  A    between atoms: _136  and  _137
REMARK   63  A    between atoms: _140  and  _142
REMARK   64  A    between atoms: _142  and  _143
REMARK   65  A    between atoms: _142  and  _145
REMARK   66  A    between atoms: _145  and  _146
REMARK   67  A    between atoms: _146  and  _147
REMARK   68  A    between atoms: _150  and  _152
REMARK   69  A    between atoms: _152  and  _153
REMARK   70  A    between atoms: _152  and  _155
REMARK   71  A    between atoms: _155  and  _156
REMARK   72  A    between atoms: _159  and  _161
REMARK   73  A    between atoms: _161  and  _162
REMARK   74  A    between atoms: _161  and  _164
REMARK   75  A    between atoms: _164  and  _165
REMARK   76  A    between atoms: _168  and  _170
REMARK   77  A    between atoms: _170  and  _171
REMARK   78  A    between atoms: _170  and  _173
REMARK   79  A    between atoms: _176  and  _178
REMARK   80  A    between atoms: _178  and  _179
REMARK   81  A    between atoms: _178  and  _181
REMARK   82  A    between atoms: _181  and  _182
REMARK   83  A    between atoms: _185  and  _187
REMARK   84  A    between atoms: _187  and  _188
REMARK   85  A    between atoms: _187  and  _190
REMARK   86  A    between atoms: _190  and  _191
REMARK   87  A    between atoms: _194  and  _196
REMARK   88  A    between atoms: _196  and  _197
REMARK   89  A    between atoms: _199  and  _201
REMARK   90  A    between atoms: _201  and  _202
REMARK   91  A    between atoms: _201  and  _204
REMARK   92  A    between atoms: _204  and  _205
REMARK   93  A    between atoms: _208  and  _210
REMARK   94  A    between atoms: _210  and  _211
REMARK   95  A    between atoms: _213  and  _215
REMARK   96  A    between atoms: _215  and  _216
REMARK   97  A    between atoms: _215  and  _218
REMARK   98  A    between atoms: _218  and  _219
REMARK   99  A    between atoms: _219  and  _220
REMARK  100  A    between atoms: _222  and  _224
REMARK  101  A    between atoms: _224  and  _225
REMARK  102  A    between atoms: _224  and  _227
REMARK  103  A    between atoms: _227  and  _228
REMARK  104  A    between atoms: _231  and  _233
REMARK  105  A    between atoms: _233  and  _234
REMARK  106  A    between atoms: _237  and  _239
REMARK  107  A    between atoms: _239  and  _240
REMARK  108  A    between atoms: _239  and  _242
REMARK  109  A    between atoms: _242  and  _243
REMARK  110  A    between atoms: _246  and  _248
REMARK  111  A    between atoms: _248  and  _249
REMARK  112  A    between atoms: _248  and  _251
REMARK  113  A    between atoms: _251  and  _252
REMARK  114  A    between atoms: _255  and  _257
REMARK  115  A    between atoms: _257  and  _258
REMARK  116  A    between atoms: _257  and  _260
REMARK  117  A    between atoms: _260  and  _261
REMARK  118  A    between atoms: _266  and  _268
REMARK  119  A    between atoms: _268  and  _269
REMARK  120  A    between atoms: _268  and  _271
REMARK  121  A    between atoms: _271  and  _272
REMARK  122  A    between atoms: _277  and  _279
REMARK  123  A    between atoms: _279  and  _280
REMARK  124  A    between atoms: _279  and  _282
REMARK  125  A    between atoms: _282  and  _283
REMARK  126  A    between atoms: _286  and  _288
REMARK  127  A    between atoms: _288  and  _289
REMARK  128  A    between atoms: _291  and  _293
REMARK  129  A    between atoms: _293  and  _294
REMARK  130  A    between atoms: _293  and  _296
REMARK  131  A    between atoms: _296  and  _297
REMARK  132  A    between atoms: _300  and  _302
REMARK  133  A    between atoms: _302  and  _303
REMARK  134  A    between atoms: _302  and  _305
REMARK  135  A    between atoms: _305  and  _306
REMARK  136  A    between atoms: _309  and  _311
REMARK  137  A    between atoms: _311  and  _312
REMARK  138  A    between atoms: _315  and  _317
REMARK  139  A    between atoms: _317  and  _318
REMARK  140  A    between atoms: _320  and  _322
REMARK  141  A    between atoms: _322  and  _323
REMARK  142  A    between atoms: _322  and  _325
REMARK  143  A    between atoms: _325  and  _326
REMARK  144  A    between atoms: _332  and  _334
REMARK  145  A    between atoms: _334  and  _335
REMARK  146  A    between atoms: _337  and  _339
REMARK  147  A    between atoms: _339  and  _340
REMARK  148  A    between atoms: _339  and  _342
REMARK  149  A    between atoms: _345  and  _347
REMARK  150  A    between atoms: _347  and  _348
REMARK  151  A    between atoms: _350  and  _352
REMARK  152  A    between atoms: _352  and  _353
REMARK  153  A    between atoms: _352  and  _355
REMARK  154  A    between atoms: _355  and  _356
REMARK  155  A    between atoms: _362  and  _364
REMARK  156  A    between atoms: _364  and  _365
REMARK  157  A    between atoms: _364  and  _367
REMARK  158  A    between atoms: _367  and  _368
REMARK  159  A    between atoms: _373  and  _374
REMARK  160  A    between atoms: _376  and  _378
REMARK  161  A    between atoms: _378  and  _379
REMARK  162  A    between atoms: _382  and  _384
REMARK  163  A    between atoms: _384  and  _385
REMARK  164  A    between atoms: _384  and  _387
REMARK  165  A    between atoms: _390  and  _392
REMARK  166  A    between atoms: _392  and  _393
REMARK  167  A    between atoms: _392  and  _395
REMARK  168  A    between atoms: _398  and  _400
REMARK  169  A    between atoms: _400  and  _401
REMARK  170  A    between atoms: _400  and  _403
REMARK  171  A    between atoms: _403  and  _404
REMARK  172  A    between atoms: _407  and  _409
REMARK  173  A    between atoms: _409  and  _410
REMARK  174  A    between atoms: _409  and  _412
REMARK  175  A    between atoms: _412  and  _413
REMARK  176  A    between atoms: _416  and  _418
REMARK  177  A    between atoms: _418  and  _419
REMARK  178  A    between atoms: _418  and  _421
REMARK  179  A    between atoms: _421  and  _422
REMARK  180  A    between atoms: _422  and  _423
REMARK  181  A    between atoms: _423  and  _424
REMARK  182  A    between atoms: _424  and  _425
REMARK  183  A    between atoms: _429  and  _431
REMARK  184  A    between atoms: _431  and  _432
REMARK  185  A    between atoms: _431  and  _434
REMARK  186  A    between atoms: _434  and  _435
REMARK  187  A    between atoms: _440  and  _442
REMARK  188  A    between atoms: _442  and  _443
REMARK  189  A    between atoms: _445  and  _447
REMARK  190  A    between atoms: _447  and  _448
REMARK  191  A    between atoms: _447  and  _450
REMARK  192  A    between atoms: _450  and  _451
REMARK  193  A    between atoms: _454  and  _456
REMARK  194  A    between atoms: _456  and  _457
REMARK  195  A    between atoms: _456  and  _459
REMARK  196  A    between atoms: _459  and  _460
REMARK  197  A    between atoms: _460  and  _461
REMARK  198  A    between atoms: _461  and  _462
REMARK  199  A    between atoms: _462  and  _463
REMARK  200  A    between atoms: _467  and  _469
REMARK  201  A    between atoms: _469  and  _470
REMARK  202  A    between atoms: _469  and  _472
REMARK  203  A    between atoms: _475  and  _477
REMARK  204  A    between atoms: _477  and  _478
REMARK  205  A    between atoms: _477  and  _480
REMARK  206  A    between atoms: _480  and  _481
REMARK  207  A    between atoms: _484  and  _486
REMARK  208  A    between atoms: _486  and  _487
REMARK  209  A    between atoms: _486  and  _489
REMARK  210  A    between atoms: _489  and  _490
REMARK  211  A    between atoms: _493  and  _495
REMARK  212  A    between atoms: _495  and  _496
REMARK  213  A    between atoms: _495  and  _498
REMARK  214  A    between atoms: _498  and  _499
REMARK  215  A    between atoms: _502  and  _504
REMARK  216  A    between atoms: _504  and  _505
REMARK  217  A    between atoms: _504  and  _507
REMARK  218  A    between atoms: _507  and  _508
REMARK  219  A    between atoms: _508  and  _509
REMARK  220  A    between atoms: _509  and  _510
REMARK  221  A    between atoms: _510  and  _511
REMARK  222  A    between atoms: _515  and  _517
REMARK  223  A    between atoms: _517  and  _518
REMARK  224  A    between atoms: _517  and  _520
REMARK  225  A    between atoms: _520  and  _521
REMARK  226  A    between atoms: _526  and  _527
REMARK                            x       y       z     vdW  Elec       q    Type
REMARK                         _______ _______ _______ _____ _____    ______ ____
ROOT
ATOM      1  CA  GLU A   1      23.895  -0.957  33.387  0.00  0.00    +0.134 C 
ENDROOT
BRANCH   1   2
ATOM      2  N   GLU A   1      23.928  -1.097  31.926  0.00  0.00    -0.239 NA
ATOM      3  H   GLU A   1      24.320  -0.321  31.355  0.00  0.00    +0.142 HD
ENDBRANCH   1   2
BRANCH   1   4
ATOM      4  C   GLU A   1      22.471  -1.055  33.926  0.00  0.00    +0.224 C 
ATOM      5  O   GLU A   1      22.212  -1.736  34.935  0.00  0.00    -0.287 OA
ENDBRANCH   1   4
BRANCH   1   6
ATOM      6  CB  GLU A   1      24.508   0.372  33.832  0.00  0.00    +0.037 C 
BRANCH   6   7
ATOM      7  CG  GLU A   1      26.023   0.462  33.765  0.00  0.00    +0.116 C 
BRANCH   7   8
ATOM      8  CD  GLU A   1      26.566   1.647  34.599  0.00  0.00    +0.365 C 
ATOM      9  OE2 GLU A   1      25.751   2.463  35.079  0.00  0.00    -0.246 OA
ATOM     10  OE1 GLU A   1      27.807   1.759  34.772  0.00  0.00    -0.246 OA
ENDBRANCH   7   8
ENDBRANCH   6   7
ENDBRANCH   1   6
TORSDOF 5
REMARK  Name = ../refined-set-2016/2uwd/2uwd_pocket.pdb
REMARK  226 active torsions:
REMARK  status: ('A' for Active; 'I' for Inactive)
REMARK    1  A    between atoms: _1  and  _3
REMARK    2  A    between atoms: _3  and  _4
REMARK    3  A    between atoms: _3  and  _6
REMARK    4  A    between atoms: _6  and  _7
REMARK    5  A    between atoms: _13  and  _15
REMARK    6  A    between atoms: _15  and  _16
REMARK    7  A    between atoms: _15  and  _18
REMARK    8  A    between atoms: _18  and  _19
REMARK    9  A    between atoms: _22  and  _24
REMARK   10  A    between atoms: _24  and  _25
REMARK   11  A    between atoms: _24  and  _27
REMARK   12  A    between atoms: _27  and  _28
REMARK   13  A    between atoms: _28  and  _29
REMARK   14  A    between atoms: _32  and  _34
REMARK   15  A    between atoms: _34  and  _35
REMARK   16  A    between atoms: _34  and  _37
REMARK   17  A    between atoms: _37  and  _38
REMARK   18  A    between atoms: _41  and  _43
REMARK   19  A    between atoms: _43  and  _44
REMARK   20  A    between atoms: _43  and  _46
REMARK   21  A    between atoms: _46  and  _47
REMARK   22  A    between atoms: _50  and  _52
REMARK   23  A    between atoms: _52  and  _53
REMARK   24  A    between atoms: _52  and  _55
REMARK   25  A    between atoms: _55  and  _56
REMARK   26  A    between atoms: _58  and  _60
REMARK   27  A    between atoms: _60  and  _61
REMARK   28  A    between atoms: _60  and  _63
REMARK   29  A    between atoms: _63  and  _64
REMARK   30  A    between atoms: _69  and  _71
REMARK   31  A    between atoms: _71  and  _72
REMARK   32  A    between atoms: _71  and  _74
REMARK   33  A    between atoms: _74  and  _75
REMARK   34  A    between atoms: _77  and  _79
REMARK   35  A    between atoms: _79  and  _80
REMARK   36  A    between atoms: _79  and  _82
REMARK   37  A    between atoms: _82  and  _83
REMARK   38  A    between atoms: _85  and  _87
REMARK   39  A    between atoms: _87  and  _88
REMARK   40  A    between atoms: _87  and  _90
REMARK   41  A    between atoms: _90  and  _91
REMARK   42  A    between atoms: _94  and  _96
REMARK   43  A    between atoms: _96  and  _97
REMARK   44  A    between atoms: _100  and  _102
REMARK   45  A    between atoms: _102  and  _103
REMARK   46  A    between atoms: _102  and  _105
REMARK   47  A    between atoms: _105  and  _106
REMARK   48  A    between atoms: _109  and  _111
REMARK   49  A    between atoms: _111  and  _112
REMARK   50  A    between atoms: _111  and  _114
REMARK   51  A    between atoms: _114  and  _115
REMARK   52  A    between atoms: _118  and  _120
REMARK   53  A    between atoms: _120  and  _121
REMARK   54  A    between atoms: _120  and  _123
REMARK   55  A    between atoms: _123  and  _124
REMARK   56  A    between atoms: _124  and  _125
REMARK   57  A    between atoms: _125  and  _126
REMARK   58  A    between atoms: _126  and  _127
REMARK   59  A    between atoms: _131  and  _133
REMARK   60  A    between atoms: _133  and  _134
REMARK   61  A    between atoms: _133  and  _136
REMARK   62  A    between atoms: _136  and  _137
REMARK   63  A    between atoms: _140  and  _142
REMARK   64  A    between atoms: _142  and  _143
REMARK   65  A    between atoms: _142  and  _145
REMARK   66  A    between atoms: _145  and  _146
REMARK   67  A    between atoms: _146  and  _147
REMARK   68  A    between atoms: _150  and  _152
REMARK   69  A    between atoms: _152  and  _153
REMARK   70  A    between atoms: _152  and  _155
REMARK   71  A    between atoms: _155  and  _156
REMARK   72  A    between atoms: _159  and  _161
REMARK   73  A    between atoms: _161  and  _162
REMARK   74  A    between atoms: _161  and  _164
REMARK   75  A    between atoms: _164  and  _165
REMARK   76  A    between atoms: _168  and  _170
REMARK   77  A    between atoms: _170  and  _171
REMARK   78  A    between atoms: _170  and  _173
REMARK   79  A    between atoms: _176  and  _178
REMARK   80  A    between atoms: _178  and  _179
REMARK   81  A    between atoms: _178  and  _181
REMARK   82  A    between atoms: _181  and  _182
REMARK   83  A    between atoms: _185  and  _187
REMARK   84  A    between atoms: _187  and  _188
REMARK   85  A    between atoms: _187  and  _190
REMARK   86  A    between atoms: _190  and  _191
REMARK   87  A    between atoms: _194  and  _196
REMARK   88  A    between atoms: _196  and  _197
REMARK   89  A    between atoms: _199  and  _201
REMARK   90  A    between atoms: _201  and  _202
REMARK   91  A    between atoms: _201  and  _204
REMARK   92  A    between atoms: _204  and  _205
REMARK   93  A    between atoms: _208  and  _210
REMARK   94  A    between atoms: _210  and  _211
REMARK   95  A    between atoms: _213  and  _215
REMARK   96  A    between atoms: _215  and  _216
REMARK   97  A    between atoms: _215  and  _218
REMARK   98  A    between atoms: _218  and  _219
REMARK   99  A    between atoms: _219  and  _220
REMARK  100  A    between atoms: _222  and  _224
REMARK  101  A    between atoms: _224  and  _225
REMARK  102  A    between atoms: _224  and  _227
REMARK  103  A    between atoms: _227  and  _228
REMARK  104  A    between atoms: _231  and  _233
REMARK  105  A    between atoms: _233  and  _234
REMARK  106  A    between atoms: _237  and  _239
REMARK  107  A    between atoms: _239  and  _240
REMARK  108  A    between atoms: _239  and  _242
REMARK  109  A    between atoms: _242  and  _243
REMARK  110  A    between atoms: _246  and  _248
REMARK  111  A    between atoms: _248  and  _249
REMARK  112  A    between atoms: _248  and  _251
REMARK  113  A    between atoms: _251  and  _252
REMARK  114  A    between atoms: _255  and  _257
REMARK  115  A    between atoms: _257  and  _258
REMARK  116  A    between atoms: _257  and  _260
REMARK  117  A    between atoms: _260  and  _261
REMARK  118  A    between atoms: _266  and  _268
REMARK  119  A    between atoms: _268  and  _269
REMARK  120  A    between atoms: _268  and  _271
REMARK  121  A    between atoms: _271  and  _272
REMARK  122  A    between atoms: _277  and  _279
REMARK  123  A    between atoms: _279  and  _280
REMARK  124  A    between atoms: _279  and  _282
REMARK  125  A    between atoms: _282  and  _283
REMARK  126  A    between atoms: _286  and  _288
REMARK  127  A    between atoms: _288  and  _289
REMARK  128  A    between atoms: _291  and  _293
REMARK  129  A    between atoms: _293  and  _294
REMARK  130  A    between atoms: _293  and  _296
REMARK  131  A    between atoms: _296  and  _297
REMARK  132  A    between atoms: _300  and  _302
REMARK  133  A    between atoms: _302  and  _303
REMARK  134  A    between atoms: _302  and  _305
REMARK  135  A    between atoms: _305  and  _306
REMARK  136  A    between atoms: _309  and  _311
REMARK  137  A    between atoms: _311  and  _312
REMARK  138  A    between atoms: _315  and  _317
REMARK  139  A    between atoms: _317  and  _318
REMARK  140  A    between atoms: _320  and  _322
REMARK  141  A    between atoms: _322  and  _323
REMARK  142  A    between atoms: _322  and  _325
REMARK  143  A    between atoms: _325  and  _326
REMARK  144  A    between atoms: _332  and  _334
REMARK  145  A    between atoms: _334  and  _335
REMARK  146  A    between atoms: _337  and  _339
REMARK  147  A    between atoms: _339  and  _340
REMARK  148  A    between atoms: _339  and  _342
REMARK  149  A    between atoms: _345  and  _347
REMARK  150  A    between atoms: _347  and  _348
REMARK  151  A    between atoms: _350  and  _352
REMARK  152  A    between atoms: _352  and  _353
REMARK  153  A    between atoms: _352  and  _355
REMARK  154  A    between atoms: _355  and  _356
REMARK  155  A    between atoms: _362  and  _364
REMARK  156  A    between atoms: _364  and  _365
REMARK  157  A    between atoms: _364  and  _367
REMARK  158  A    between atoms: _367  and  _368
REMARK  159  A    between atoms: _373  and  _374
REMARK  160  A    between atoms: _376  and  _378
REMARK  161  A    between atoms: _378  and  _379
REMARK  162  A    between atoms: _382  and  _384
REMARK  163  A    between atoms: _384  and  _385
REMARK  164  A    between atoms: _384  and  _387
REMARK  165  A    between atoms: _390  and  _392
REMARK  166  A    between atoms: _392  and  _393
REMARK  167  A    between atoms: _392  and  _395
REMARK  168  A    between atoms: _398  and  _400
REMARK  169  A    between atoms: _400  and  _401
REMARK  170  A    between atoms: _400  and  _403
REMARK  171  A    between atoms: _403  and  _404
REMARK  172  A    between atoms: _407  and  _409
REMARK  173  A    between atoms: _409  and  _410
REMARK  174  A    between atoms: _409  and  _412
REMARK  175  A    between atoms: _412  and  _413
REMARK  176  A    between atoms: _416  and  _418
REMARK  177  A    between atoms: _418  and  _419
REMARK  178  A    between atoms: _418  and  _421
REMARK  179  A    between atoms: _421  and  _422
REMARK  180  A    between atoms: _422  and  _423
REMARK  181  A    between atoms: _423  and  _424
REMARK  182  A    between atoms: _424  and  _425
REMARK  183  A    between atoms: _429  and  _431
REMARK  184  A    between atoms: _431  and  _432
REMARK  185  A    between atoms: _431  and  _434
REMARK  186  A    between atoms: _434  and  _435
REMARK  187  A    between atoms: _440  and  _442
REMARK  188  A    between atoms: _442  and  _443
REMARK  189  A    between atoms: _445  and  _447
REMARK  190  A    between atoms: _447  and  _448
REMARK  191  A    between atoms: _447  and  _450
REMARK  192  A    between atoms: _450  and  _451
REMARK  193  A    between atoms: _454  and  _456
REMARK  194  A    between atoms: _456  and  _457
REMARK  195  A    between atoms: _456  and  _459
REMARK  196  A    between atoms: _459  and  _460
REMARK  197  A    between atoms: _460  and  _461
REMARK  198  A    between atoms: _461  and  _462
REMARK  199  A    between atoms: _462  and  _463
REMARK  200  A    between atoms: _467  and  _469
REMARK  201  A    between atoms: _469  and  _470
REMARK  202  A    between atoms: _469  and  _472
REMARK  203  A    between atoms: _475  and  _477
REMARK  204  A    between atoms: _477  and  _478
REMARK  205  A    between atoms: _477  and  _480
REMARK  206  A    between atoms: _480  and  _481
REMARK  207  A    between atoms: _484  and  _486
REMARK  208  A    between atoms: _486  and  _487
REMARK  209  A    between atoms: _486  and  _489
REMARK  210  A    between atoms: _489  and  _490
REMARK  211  A    between atoms: _493  and  _495
REMARK  212  A    between atoms: _495  and  _496
REMARK  213  A    between atoms: _495  and  _498
REMARK  214  A    between atoms: _498  and  _499
REMARK  215  A    between atoms: _502  and  _504
REMARK  216  A    between atoms: _504  and  _505
REMARK  217  A    between atoms: _504  and  _507
REMARK  218  A    between atoms: _507  and  _508
REMARK  219  A    between atoms: _508  and  _509
REMARK  220  A    between atoms: _509  and  _510
REMARK  221  A    between atoms: _510  and  _511
REMARK  222  A    between atoms: _515  and  _517
REMARK  223  A    between atoms: _517  and  _518
REMARK  224  A    between atoms: _517  and  _520
REMARK  225  A    between atoms: _520  and  _521
REMARK  226  A    between atoms: _526  and  _527
REMARK                            x       y       z     vdW  Elec       q    Type
REMARK                         _______ _______ _______ _____ _____    ______ ____
ROOT
ATOM      1  CA  ILE A   1      20.477  11.807  20.273  0.00  0.00    +0.133 C 
ENDROOT
BRANCH   1   2
ATOM      2  N   ILE A   1      19.497  10.865  20.828  0.00  0.00    -0.239 NA
ATOM      3  H   ILE A   1      18.764  10.504  20.185  0.00  0.00    +0.142 HD
ENDBRANCH   1   2
BRANCH   1   4
ATOM      4  C   ILE A   1      19.767  12.987  19.604  0.00  0.00    +0.224 C 
ATOM      5  O   ILE A   1      18.924  12.809  18.715  0.00  0.00    -0.287 OA
ENDBRANCH   1   4
BRANCH   1   6
ATOM      6  CB  ILE A   1      21.457  11.137  19.218  0.00  0.00    +0.023 C 
ATOM      7  CG2 ILE A   1      22.483  12.193  18.671  0.00  0.00    +0.002 C 
BRANCH   6   8
ATOM      8  CG1 ILE A   1      22.144   9.884  19.813  0.00  0.00    +0.002 C 
ATOM      9  CD1 ILE A   1      22.698   8.889  18.754  0.00  0.00    +0.000 C 
ENDBRANCH   6   8
ENDBRANCH   1   6
TORSDOF 4
REMARK  Name = ../refined-set-2016/2uwd/2uwd_pocket.pdb
REMARK  226 active torsions:
REMARK  status: ('A' for Active; 'I' for Inactive)
REMARK    1  A    between atoms: _1  and  _3
REMARK    2  A    between atoms: _3  and  _4
REMARK    3  A    between atoms: _3  and  _6
REMARK    4  A    between atoms: _6  and  _7
REMARK    5  A    between atoms: _13  and  _15
REMARK    6  A    between atoms: _15  and  _16
REMARK    7  A    between atoms: _15  and  _18
REMARK    8  A    between atoms: _18  and  _19
REMARK    9  A    between atoms: _22  and  _24
REMARK   10  A    between atoms: _24  and  _25
REMARK   11  A    between atoms: _24  and  _27
REMARK   12  A    between atoms: _27  and  _28
REMARK   13  A    between atoms: _28  and  _29
REMARK   14  A    between atoms: _32  and  _34
REMARK   15  A    between atoms: _34  and  _35
REMARK   16  A    between atoms: _34  and  _37
REMARK   17  A    between atoms: _37  and  _38
REMARK   18  A    between atoms: _41  and  _43
REMARK   19  A    between atoms: _43  and  _44
REMARK   20  A    between atoms: _43  and  _46
REMARK   21  A    between atoms: _46  and  _47
REMARK   22  A    between atoms: _50  and  _52
REMARK   23  A    between atoms: _52  and  _53
REMARK   24  A    between atoms: _52  and  _55
REMARK   25  A    between atoms: _55  and  _56
REMARK   26  A    between atoms: _58  and  _60
REMARK   27  A    between atoms: _60  and  _61
REMARK   28  A    between atoms: _60  and  _63
REMARK   29  A    between atoms: _63  and  _64
REMARK   30  A    between atoms: _69  and  _71
REMARK   31  A    between atoms: _71  and  _72
REMARK   32  A    between atoms: _71  and  _74
REMARK   33  A    between atoms: _74  and  _75
REMARK   34  A    between atoms: _77  and  _79
REMARK   35  A    between atoms: _79  and  _80
REMARK   36  A    between atoms: _79  and  _82
REMARK   37  A    between atoms: _82  and  _83
REMARK   38  A    between atoms: _85  and  _87
REMARK   39  A    between atoms: _87  and  _88
REMARK   40  A    between atoms: _87  and  _90
REMARK   41  A    between atoms: _90  and  _91
REMARK   42  A    between atoms: _94  and  _96
REMARK   43  A    between atoms: _96  and  _97
REMARK   44  A    between atoms: _100  and  _102
REMARK   45  A    between atoms: _102  and  _103
REMARK   46  A    between atoms: _102  and  _105
REMARK   47  A    between atoms: _105  and  _106
REMARK   48  A    between atoms: _109  and  _111
REMARK   49  A    between atoms: _111  and  _112
REMARK   50  A    between atoms: _111  and  _114
REMARK   51  A    between atoms: _114  and  _115
REMARK   52  A    between atoms: _118  and  _120
REMARK   53  A    between atoms: _120  and  _121
REMARK   54  A    between atoms: _120  and  _123
REMARK   55  A    between atoms: _123  and  _124
REMARK   56  A    between atoms: _124  and  _125
REMARK   57  A    between atoms: _125  and  _126
REMARK   58  A    between atoms: _126  and  _127
REMARK   59  A    between atoms: _131  and  _133
REMARK   60  A    between atoms: _133  and  _134
REMARK   61  A    between atoms: _133  and  _136
REMARK   62  A    between atoms: _136  and  _137
REMARK   63  A    between atoms: _140  and  _142
REMARK   64  A    between atoms: _142  and  _143
REMARK   65  A    between atoms: _142  and  _145
REMARK   66  A    between atoms: _145  and  _146
REMARK   67  A    between atoms: _146  and  _147
REMARK   68  A    between atoms: _150  and  _152
REMARK   69  A    between atoms: _152  and  _153
REMARK   70  A    between atoms: _152  and  _155
REMARK   71  A    between atoms: _155  and  _156
REMARK   72  A    between atoms: _159  and  _161
REMARK   73  A    between atoms: _161  and  _162
REMARK   74  A    between atoms: _161  and  _164
REMARK   75  A    between atoms: _164  and  _165
REMARK   76  A    between atoms: _168  and  _170
REMARK   77  A    between atoms: _170  and  _171
REMARK   78  A    between atoms: _170  and  _173
REMARK   79  A    between atoms: _176  and  _178
REMARK   80  A    between atoms: _178  and  _179
REMARK   81  A    between atoms: _178  and  _181
REMARK   82  A    between atoms: _181  and  _182
REMARK   83  A    between atoms: _185  and  _187
REMARK   84  A    between atoms: _187  and  _188
REMARK   85  A    between atoms: _187  and  _190
REMARK   86  A    between atoms: _190  and  _191
REMARK   87  A    between atoms: _194  and  _196
REMARK   88  A    between atoms: _196  and  _197
REMARK   89  A    between atoms: _199  and  _201
REMARK   90  A    between atoms: _201  and  _202
REMARK   91  A    between atoms: _201  and  _204
REMARK   92  A    between atoms: _204  and  _205
REMARK   93  A    between atoms: _208  and  _210
REMARK   94  A    between atoms: _210  and  _211
REMARK   95  A    between atoms: _213  and  _215
REMARK   96  A    between atoms: _215  and  _216
REMARK   97  A    between atoms: _215  and  _218
REMARK   98  A    between atoms: _218  and  _219
REMARK   99  A    between atoms: _219  and  _220
REMARK  100  A    between atoms: _222  and  _224
REMARK  101  A    between atoms: _224  and  _225
REMARK  102  A    between atoms: _224  and  _227
REMARK  103  A    between atoms: _227  and  _228
REMARK  104  A    between atoms: _231  and  _233
REMARK  105  A    between atoms: _233  and  _234
REMARK  106  A    between atoms: _237  and  _239
REMARK  107  A    between atoms: _239  and  _240
REMARK  108  A    between atoms: _239  and  _242
REMARK  109  A    between atoms: _242  and  _243
REMARK  110  A    between atoms: _246  and  _248
REMARK  111  A    between atoms: _248  and  _249
REMARK  112  A    between atoms: _248  and  _251
REMARK  113  A    between atoms: _251  and  _252
REMARK  114  A    between atoms: _255  and  _257
REMARK  115  A    between atoms: _257  and  _258
REMARK  116  A    between atoms: _257  and  _260
REMARK  117  A    between atoms: _260  and  _261
REMARK  118  A    between atoms: _266  and  _268
REMARK  119  A    between atoms: _268  and  _269
REMARK  120  A    between atoms: _268  and  _271
REMARK  121  A    between atoms: _271  and  _272
REMARK  122  A    between atoms: _277  and  _279
REMARK  123  A    between atoms: _279  and  _280
REMARK  124  A    between atoms: _279  and  _282
REMARK  125  A    between atoms: _282  and  _283
REMARK  126  A    between atoms: _286  and  _288
REMARK  127  A    between atoms: _288  and  _289
REMARK  128  A    between atoms: _291  and  _293
REMARK  129  A    between atoms: _293  and  _294
REMARK  130  A    between atoms: _293  and  _296
REMARK  131  A    between atoms: _296  and  _297
REMARK  132  A    between atoms: _300  and  _302
REMARK  133  A    between atoms: _302  and  _303
REMARK  134  A    between atoms: _302  and  _305
REMARK  135  A    between atoms: _305  and  _306
REMARK  136  A    between atoms: _309  and  _311
REMARK  137  A    between atoms: _311  and  _312
REMARK  138  A    between atoms: _315  and  _317
REMARK  139  A    between atoms: _317  and  _318
REMARK  140  A    between atoms: _320  and  _322
REMARK  141  A    between atoms: _322  and  _323
REMARK  142  A    between atoms: _322  and  _325
REMARK  143  A    between atoms: _325  and  _326
REMARK  144  A    between atoms: _332  and  _334
REMARK  145  A    between atoms: _334  and  _335
REMARK  146  A    between atoms: _337  and  _339
REMARK  147  A    between atoms: _339  and  _340
REMARK  148  A    between atoms: _339  and  _342
REMARK  149  A    between atoms: _345  and  _347
REMARK  150  A    between atoms: _347  and  _348
REMARK  151  A    between atoms: _350  and  _352
REMARK  152  A    between atoms: _352  and  _353
REMARK  153  A    between atoms: _352  and  _355
REMARK  154  A    between atoms: _355  and  _356
REMARK  155  A    between atoms: _362  and  _364
REMARK  156  A    between atoms: _364  and  _365
REMARK  157  A    between atoms: _364  and  _367
REMARK  158  A    between atoms: _367  and  _368
REMARK  159  A    between atoms: _373  and  _374
REMARK  160  A    between atoms: _376  and  _378
REMARK  161  A    between atoms: _378  and  _379
REMARK  162  A    between atoms: _382  and  _384
REMARK  163  A    between atoms: _384  and  _385
REMARK  164  A    between atoms: _384  and  _387
REMARK  165  A    between atoms: _390  and  _392
REMARK  166  A    between atoms: _392  and  _393
REMARK  167  A    between atoms: _392  and  _395
REMARK  168  A    between atoms: _398  and  _400
REMARK  169  A    between atoms: _400  and  _401
REMARK  170  A    between atoms: _400  and  _403
REMARK  171  A    between atoms: _403  and  _404
REMARK  172  A    between atoms: _407  and  _409
REMARK  173  A    between atoms: _409  and  _410
REMARK  174  A    between atoms: _409  and  _412
REMARK  175  A    between atoms: _412  and  _413
REMARK  176  A    between atoms: _416  and  _418
REMARK  177  A    between atoms: _418  and  _419
REMARK  178  A    between atoms: _418  and  _421
REMARK  179  A    between atoms: _421  and  _422
REMARK  180  A    between atoms: _422  and  _423
REMARK  181  A    between atoms: _423  and  _424
REMARK  182  A    between atoms: _424  and  _425
REMARK  183  A    between atoms: _429  and  _431
REMARK  184  A    between atoms: _431  and  _432
REMARK  185  A    between atoms: _431  and  _434
REMARK  186  A    between atoms: _434  and  _435
REMARK  187  A    between atoms: _440  and  _442
REMARK  188  A    between atoms: _442  and  _443
REMARK  189  A    between atoms: _445  and  _447
REMARK  190  A    between atoms: _447  and  _448
REMARK  191  A    between atoms: _447  and  _450
REMARK  192  A    between atoms: _450  and  _451
REMARK  193  A    between atoms: _454  and  _456
REMARK  194  A    between atoms: _456  and  _457
REMARK  195  A    between atoms: _456  and  _459
REMARK  196  A    between atoms: _459  and  _460
REMARK  197  A    between atoms: _460  and  _461
REMARK  198  A    between atoms: _461  and  _462
REMARK  199  A    between atoms: _462  and  _463
REMARK  200  A    between atoms: _467  and  _469
REMARK  201  A    between atoms: _469  and  _470
REMARK  202  A    between atoms: _469  and  _472
REMARK  203  A    between atoms: _475  and  _477
REMARK  204  A    between atoms: _477  and  _478
REMARK  205  A    between atoms: _477  and  _480
REMARK  206  A    between atoms: _480  and  _481
REMARK  207  A    between atoms: _484  and  _486
REMARK  208  A    between atoms: _486  and  _487
REMARK  209  A    between atoms: _486  and  _489
REMARK  210  A    between atoms: _489  and  _490
REMARK  211  A    between atoms: _493  and  _495
REMARK  212  A    between atoms: _495  and  _496
REMARK  213  A    between atoms: _495  and  _498
REMARK  214  A    between atoms: _498  and  _499
REMARK  215  A    between atoms: _502  and  _504
REMARK  216  A    between atoms: _504  and  _505
REMARK  217  A    between atoms: _504  and  _507
REMARK  218  A    between atoms: _507  and  _508
REMARK  219  A    between atoms: _508  and  _509
REMARK  220  A    between atoms: _509  and  _510
REMARK  221  A    between atoms: _510  and  _511
REMARK  222  A    between atoms: _515  and  _517
REMARK  223  A    between atoms: _517  and  _518
REMARK  224  A    between atoms: _517  and  _520
REMARK  225  A    between atoms: _520  and  _521
REMARK  226  A    between atoms: _526  and  _527
REMARK                            x       y       z     vdW  Elec       q    Type
REMARK                         _______ _______ _______ _____ _____    ______ ____
ROOT
ATOM      1  C   THR A   4      22.144   9.559  27.593  0.00  0.00    +0.243 C 
ATOM      2  O   THR A   4      21.612   8.737  28.326  0.00  0.00    -0.273 OA
ATOM      3  N   GLY A   5      23.384   9.386  27.111  0.00  0.00    -0.295 N 
ATOM      4  H   GLY A   5      23.767  10.100  26.459  0.00  0.00    +0.150 HD
ENDROOT
BRANCH   3   5
ATOM      5  CA  GLY A   5      24.215   8.250  27.456  0.00  0.00    +0.176 C 
BRANCH   5   6
ATOM      6  C   GLY A   5      24.714   8.266  28.907  0.00  0.00    +0.243 C 
ATOM      7  O   GLY A   5      24.232   9.033  29.754  0.00  0.00    -0.273 OA
ATOM      8  N   ILE A   6      25.695   7.415  29.185  0.00  0.00    -0.297 N 
ATOM      9  H   ILE A   6      26.111   6.854  28.414  0.00  0.00    +0.150 HD
BRANCH   8  10
ATOM     10  CA  ILE A   6      26.212   7.242  30.557  0.00  0.00    +0.149 C 
BRANCH  10  11
ATOM     11  C   ILE A   6      26.919   8.502  31.113  0.00  0.00    +0.241 C 
ATOM     12  O   ILE A   6      26.970   8.727  32.349  0.00  0.00    -0.273 OA
ATOM     13  N   GLY A   7      27.445   9.323  30.203  0.00  0.00    -0.295 N 
ATOM     14  H   GLY A   7      27.295   9.118  29.194  0.00  0.00    +0.150 HD
BRANCH  13  15
ATOM     15  CA  GLY A   7      28.226  10.503  30.578  0.00  0.00    +0.176 C 
BRANCH  15  16
ATOM     16  C   GLY A   7      29.628  10.188  31.101  0.00  0.00    +0.243 C 
ATOM     17  N   MET A   8      30.415  11.230  31.322  0.00  0.00    -0.297 N 
ATOM     18  H   MET A   8      30.058  12.190  31.142  0.00  0.00    +0.150 HD
ATOM     19  O   GLY A   7      30.008   9.044  31.267  0.00  0.00    -0.273 OA
BRANCH  17  20
ATOM     20  CA  MET A   8      31.774  11.049  31.814  0.00  0.00    +0.149 C 
BRANCH  20  21
ATOM     21  C   MET A   8      31.974  11.747  33.163  0.00  0.00    +0.241 C 
ATOM     22  N   THR A   9      32.805  11.120  33.988  0.00  0.00    -0.296 N 
ATOM     23  H   THR A   9      33.112  10.157  33.744  0.00  0.00    +0.150 HD
ATOM     24  O   MET A   8      31.367  12.809  33.443  0.00  0.00    -0.273 OA
BRANCH  22  25
ATOM     25  CA  THR A   9      33.310  11.720  35.224  0.00  0.00    +0.164 C 
BRANCH  25  26
ATOM     26  C   THR A   9      34.408  12.740  34.838  0.00  0.00    +0.229 C 
ATOM     27  O   THR A   9      34.920  12.740  33.701  0.00  0.00    -0.286 OA
ENDBRANCH  25  26
BRANCH  25  28
ATOM     28  CB  THR A   9      33.866  10.659  36.245  0.00  0.00    +0.136 C 
ATOM     29  CG2 THR A   9      32.869   9.499  36.489  0.00  0.00    +0.034 C 
BRANCH  28  30
ATOM     30  OG1 THR A   9      35.101  10.109  35.760  0.00  0.00    -0.382 OA
ATOM     31  HG1 THR A   9      35.442   9.443  36.409  0.00  0.00    +0.210 HD
ENDBRANCH  28  30
ENDBRANCH  25  28
ENDBRANCH  22  25
ENDBRANCH  20  21
BRANCH  20  32
ATOM     32  CB  MET A   8      32.792  11.525  30.764  0.00  0.00    +0.041 C 
BRANCH  32  33
ATOM     33  CG  MET A   8      32.798  10.681  29.460  0.00  0.00    +0.060 C 
BRANCH  33  34
ATOM     34  SD  MET A   8      33.680  11.456  28.076  0.00  0.00    -0.139 S 
ATOM     35  CE  MET A   8      32.479  12.713  27.591  0.00  0.00    +0.069 C 
ENDBRANCH  33  34
ENDBRANCH  32  33
ENDBRANCH  20  32
ENDBRANCH  17  20
ENDBRANCH  15  16
ENDBRANCH  13  15
ENDBRANCH  10  11
BRANCH  10  36
ATOM     36  CB  ILE A   6      27.079   5.952  30.649  0.00  0.00    +0.027 C 
ATOM     37  CG2 ILE A   6      28.397   6.103  29.833  0.00  0.00    +0.002 C 
BRANCH  36  38
ATOM     38  CG1 ILE A   6      27.205   5.470  32.115  0.00  0.00    +0.002 C 
ATOM     39  CD1 ILE A   6      27.448   3.963  32.266  0.00  0.00    +0.000 C 
ENDBRANCH  36  38
ENDBRANCH  10  36
ENDBRANCH   8  10
ENDBRANCH   5   6
ENDBRANCH   3   5
BRANCH   1  40
ATOM     40  CA  THR A   4      21.423  10.881  27.204  0.00  0.00    +0.176 C 
BRANCH  40  43
ATOM     41  C   ASP A   3      22.523  12.284  25.519  0.00  0.00    +0.241 C 
ATOM     42  O   ASP A   3      23.015  13.073  26.348  0.00  0.00    -0.273 OA
ATOM     43  N   THR A   4      21.719  11.271  25.825  0.00  0.00    -0.295 N 
ATOM     44  H   THR A   4      21.281  10.732  25.051  0.00  0.00    +0.150 HD
BRANCH  41  45
ATOM     45  CA  ASP A   3      22.867  12.393  24.038  0.00  0.00    +0.160 C 
BRANCH  45  47
ATOM     46  C   VAL A   2      22.859  14.451  22.789  0.00  0.00    +0.241 C 
ATOM     47  N   ASP A   3      23.382  13.725  23.775  0.00  0.00    -0.297 N 
ATOM     48  H   ASP A   3      24.155  14.110  24.354  0.00  0.00    +0.150 HD
ATOM     49  O   VAL A   2      22.011  14.016  21.976  0.00  0.00    -0.273 OA
BRANCH  46  50
ATOM     50  CA  VAL A   2      23.343  15.861  22.703  0.00  0.00    +0.148 C 
BRANCH  50  53
ATOM     51  C   ILE A   1      24.973  16.641  21.053  0.00  0.00    +0.238 C 
ATOM     52  O   ILE A   1      25.888  16.716  21.900  0.00  0.00    -0.274 OA
ATOM     53  N   VAL A   2      23.761  16.189  21.324  0.00  0.00    -0.297 N 
ATOM     54  H   VAL A   2      23.083  16.061  20.546  0.00  0.00    +0.150 HD
BRANCH  51  55
ATOM     55  CA  ILE A   1      25.218  17.028  19.591  0.00  0.00    +0.145 C 
BRANCH  55  56
ATOM     56  N   ILE A   1      25.674  18.423  19.463  0.00  0.00    -0.238 NA
ATOM     57  H   ILE A   1      26.645  18.655  19.754  0.00  0.00    +0.142 HD
ENDBRANCH  55  56
BRANCH  55  58
ATOM     58  CB  ILE A   1      26.194  15.988  18.952  0.00  0.00    +0.025 C 
ATOM     59  CG2 ILE A   1      25.645  14.553  19.065  0.00  0.00    +0.002 C 
BRANCH  58  60
ATOM     60  CG1 ILE A   1      26.523  16.337  17.488  0.00  0.00    +0.002 C 
ATOM     61  CD1 ILE A   1      27.672  17.310  17.346  0.00  0.00    +0.000 C 
ENDBRANCH  58  60
ENDBRANCH  55  58
ENDBRANCH  51  55
ENDBRANCH  50  53
BRANCH  50  62
ATOM     62  CB  VAL A   2      22.200  16.781  23.267  0.00  0.00    +0.027 C 
ATOM     63  CG2 VAL A   2      22.061  16.593  24.791  0.00  0.00    +0.002 C 
ATOM     64  CG1 VAL A   2      22.487  18.238  22.982  0.00  0.00    +0.002 C 
ENDBRANCH  50  62
ENDBRANCH  46  50
ENDBRANCH  45  47
BRANCH  45  65
ATOM     65  CB  ASP A   3      23.863  11.287  23.618  0.00  0.00    +0.143 C 
BRANCH  65  66
ATOM     66  CG  ASP A   3      25.166  11.323  24.421  0.00  0.00    +0.367 C 
ATOM     67  OD2 ASP A   3      25.136  11.083  25.662  0.00  0.00    -0.246 OA
ATOM     68  OD1 ASP A   3      26.232  11.577  23.806  0.00  0.00    -0.246 OA
ENDBRANCH  65  66
ENDBRANCH  45  65
ENDBRANCH  41  45
ENDBRANCH  40  43
BRANCH  40  69
ATOM     69  CB  THR A   4      19.888  10.796  27.412  0.00  0.00    +0.137 C 
ATOM     70  CG2 THR A   4      19.274  12.180  27.346  0.00  0.00    +0.034 C 
BRANCH  69  71
ATOM     71  OG1 THR A   4      19.310   9.989  26.374  0.00  0.00    -0.382 OA
ATOM     72  HG1 THR A   4      18.330   9.935  26.507  0.00  0.00    +0.210 HD
ENDBRANCH  69  71
ENDBRANCH  40  69
ENDBRANCH   1  40
TORSDOF 32
REMARK  Name = ../refined-set-2016/2uwd/2uwd_pocket.pdb
REMARK  226 active torsions:
REMARK  status: ('A' for Active; 'I' for Inactive)
REMARK    1  A    between atoms: _1  and  _3
REMARK    2  A    between atoms: _3  and  _4
REMARK    3  A    between atoms: _3  and  _6
REMARK    4  A    between atoms: _6  and  _7
REMARK    5  A    between atoms: _13  and  _15
REMARK    6  A    between atoms: _15  and  _16
REMARK    7  A    between atoms: _15  and  _18
REMARK    8  A    between atoms: _18  and  _19
REMARK    9  A    between atoms: _22  and  _24
REMARK   10  A    between atoms: _24  and  _25
REMARK   11  A    between atoms: _24  and  _27
REMARK   12  A    between atoms: _27  and  _28
REMARK   13  A    between atoms: _28  and  _29
REMARK   14  A    between atoms: _32  and  _34
REMARK   15  A    between atoms: _34  and  _35
REMARK   16  A    between atoms: _34  and  _37
REMARK   17  A    between atoms: _37  and  _38
REMARK   18  A    between atoms: _41  and  _43
REMARK   19  A    between atoms: _43  and  _44
REMARK   20  A    between atoms: _43  and  _46
REMARK   21  A    between atoms: _46  and  _47
REMARK   22  A    between atoms: _50  and  _52
REMARK   23  A    between atoms: _52  and  _53
REMARK   24  A    between atoms: _52  and  _55
REMARK   25  A    between atoms: _55  and  _56
REMARK   26  A    between atoms: _58  and  _60
REMARK   27  A    between atoms: _60  and  _61
REMARK   28  A    between atoms: _60  and  _63
REMARK   29  A    between atoms: _63  and  _64
REMARK   30  A    between atoms: _69  and  _71
REMARK   31  A    between atoms: _71  and  _72
REMARK   32  A    between atoms: _71  and  _74
REMARK   33  A    between atoms: _74  and  _75
REMARK   34  A    between atoms: _77  and  _79
REMARK   35  A    between atoms: _79  and  _80
REMARK   36  A    between atoms: _79  and  _82
REMARK   37  A    between atoms: _82  and  _83
REMARK   38  A    between atoms: _85  and  _87
REMARK   39  A    between atoms: _87  and  _88
REMARK   40  A    between atoms: _87  and  _90
REMARK   41  A    between atoms: _90  and  _91
REMARK   42  A    between atoms: _94  and  _96
REMARK   43  A    between atoms: _96  and  _97
REMARK   44  A    between atoms: _100  and  _102
REMARK   45  A    between atoms: _102  and  _103
REMARK   46  A    between atoms: _102  and  _105
REMARK   47  A    between atoms: _105  and  _106
REMARK   48  A    between atoms: _109  and  _111
REMARK   49  A    between atoms: _111  and  _112
REMARK   50  A    between atoms: _111  and  _114
REMARK   51  A    between atoms: _114  and  _115
REMARK   52  A    between atoms: _118  and  _120
REMARK   53  A    between atoms: _120  and  _121
REMARK   54  A    between atoms: _120  and  _123
REMARK   55  A    between atoms: _123  and  _124
REMARK   56  A    between atoms: _124  and  _125
REMARK   57  A    between atoms: _125  and  _126
REMARK   58  A    between atoms: _126  and  _127
REMARK   59  A    between atoms: _131  and  _133
REMARK   60  A    between atoms: _133  and  _134
REMARK   61  A    between atoms: _133  and  _136
REMARK   62  A    between atoms: _136  and  _137
REMARK   63  A    between atoms: _140  and  _142
REMARK   64  A    between atoms: _142  and  _143
REMARK   65  A    between atoms: _142  and  _145
REMARK   66  A    between atoms: _145  and  _146
REMARK   67  A    between atoms: _146  and  _147
REMARK   68  A    between atoms: _150  and  _152
REMARK   69  A    between atoms: _152  and  _153
REMARK   70  A    between atoms: _152  and  _155
REMARK   71  A    between atoms: _155  and  _156
REMARK   72  A    between atoms: _159  and  _161
REMARK   73  A    between atoms: _161  and  _162
REMARK   74  A    between atoms: _161  and  _164
REMARK   75  A    between atoms: _164  and  _165
REMARK   76  A    between atoms: _168  and  _170
REMARK   77  A    between atoms: _170  and  _171
REMARK   78  A    between atoms: _170  and  _173
REMARK   79  A    between atoms: _176  and  _178
REMARK   80  A    between atoms: _178  and  _179
REMARK   81  A    between atoms: _178  and  _181
REMARK   82  A    between atoms: _181  and  _182
REMARK   83  A    between atoms: _185  and  _187
REMARK   84  A    between atoms: _187  and  _188
REMARK   85  A    between atoms: _187  and  _190
REMARK   86  A    between atoms: _190  and  _191
REMARK   87  A    between atoms: _194  and  _196
REMARK   88  A    between atoms: _196  and  _197
REMARK   89  A    between atoms: _199  and  _201
REMARK   90  A    between atoms: _201  and  _202
REMARK   91  A    between atoms: _201  and  _204
REMARK   92  A    between atoms: _204  and  _205
REMARK   93  A    between atoms: _208  and  _210
REMARK   94  A    between atoms: _210  and  _211
REMARK   95  A    between atoms: _213  and  _215
REMARK   96  A    between atoms: _215  and  _216
REMARK   97  A    between atoms: _215  and  _218
REMARK   98  A    between atoms: _218  and  _219
REMARK   99  A    between atoms: _219  and  _220
REMARK  100  A    between atoms: _222  and  _224
REMARK  101  A    between atoms: _224  and  _225
REMARK  102  A    between atoms: _224  and  _227
REMARK  103  A    between atoms: _227  and  _228
REMARK  104  A    between atoms: _231  and  _233
REMARK  105  A    between atoms: _233  and  _234
REMARK  106  A    between atoms: _237  and  _239
REMARK  107  A    between atoms: _239  and  _240
REMARK  108  A    between atoms: _239  and  _242
REMARK  109  A    between atoms: _242  and  _243
REMARK  110  A    between atoms: _246  and  _248
REMARK  111  A    between atoms: _248  and  _249
REMARK  112  A    between atoms: _248  and  _251
REMARK  113  A    between atoms: _251  and  _252
REMARK  114  A    between atoms: _255  and  _257
REMARK  115  A    between atoms: _257  and  _258
REMARK  116  A    between atoms: _257  and  _260
REMARK  117  A    between atoms: _260  and  _261
REMARK  118  A    between atoms: _266  and  _268
REMARK  119  A    between atoms: _268  and  _269
REMARK  120  A    between atoms: _268  and  _271
REMARK  121  A    between atoms: _271  and  _272
REMARK  122  A    between atoms: _277  and  _279
REMARK  123  A    between atoms: _279  and  _280
REMARK  124  A    between atoms: _279  and  _282
REMARK  125  A    between atoms: _282  and  _283
REMARK  126  A    between atoms: _286  and  _288
REMARK  127  A    between atoms: _288  and  _289
REMARK  128  A    between atoms: _291  and  _293
REMARK  129  A    between atoms: _293  and  _294
REMARK  130  A    between atoms: _293  and  _296
REMARK  131  A    between atoms: _296  and  _297
REMARK  132  A    between atoms: _300  and  _302
REMARK  133  A    between atoms: _302  and  _303
REMARK  134  A    between atoms: _302  and  _305
REMARK  135  A    between atoms: _305  and  _306
REMARK  136  A    between atoms: _309  and  _311
REMARK  137  A    between atoms: _311  and  _312
REMARK  138  A    between atoms: _315  and  _317
REMARK  139  A    between atoms: _317  and  _318
REMARK  140  A    between atoms: _320  and  _322
REMARK  141  A    between atoms: _322  and  _323
REMARK  142  A    between atoms: _322  and  _325
REMARK  143  A    between atoms: _325  and  _326
REMARK  144  A    between atoms: _332  and  _334
REMARK  145  A    between atoms: _334  and  _335
REMARK  146  A    between atoms: _337  and  _339
REMARK  147  A    between atoms: _339  and  _340
REMARK  148  A    between atoms: _339  and  _342
REMARK  149  A    between atoms: _345  and  _347
REMARK  150  A    between atoms: _347  and  _348
REMARK  151  A    between atoms: _350  and  _352
REMARK  152  A    between atoms: _352  and  _353
REMARK  153  A    between atoms: _352  and  _355
REMARK  154  A    between atoms: _355  and  _356
REMARK  155  A    between atoms: _362  and  _364
REMARK  156  A    between atoms: _364  and  _365
REMARK  157  A    between atoms: _364  and  _367
REMARK  158  A    between atoms: _367  and  _368
REMARK  159  A    between atoms: _373  and  _374
REMARK  160  A    between atoms: _376  and  _378
REMARK  161  A    between atoms: _378  and  _379
REMARK  162  A    between atoms: _382  and  _384
REMARK  163  A    between atoms: _384  and  _385
REMARK  164  A    between atoms: _384  and  _387
REMARK  165  A    between atoms: _390  and  _392
REMARK  166  A    between atoms: _392  and  _393
REMARK  167  A    between atoms: _392  and  _395
REMARK  168  A    between atoms: _398  and  _400
REMARK  169  A    between atoms: _400  and  _401
REMARK  170  A    between atoms: _400  and  _403
REMARK  171  A    between atoms: _403  and  _404
REMARK  172  A    between atoms: _407  and  _409
REMARK  173  A    between atoms: _409  and  _410
REMARK  174  A    between atoms: _409  and  _412
REMARK  175  A    between atoms: _412  and  _413
REMARK  176  A    between atoms: _416  and  _418
REMARK  177  A    between atoms: _418  and  _419
REMARK  178  A    between atoms: _418  and  _421
REMARK  179  A    between atoms: _421  and  _422
REMARK  180  A    between atoms: _422  and  _423
REMARK  181  A    between atoms: _423  and  _424
REMARK  182  A    between atoms: _424  and  _425
REMARK  183  A    between atoms: _429  and  _431
REMARK  184  A    between atoms: _431  and  _432
REMARK  185  A    between atoms: _431  and  _434
REMARK  186  A    between atoms: _434  and  _435
REMARK  187  A    between atoms: _440  and  _442
REMARK  188  A    between atoms: _442  and  _443
REMARK  189  A    between atoms: _445  and  _447
REMARK  190  A    between atoms: _447  and  _448
REMARK  191  A    between atoms: _447  and  _450
REMARK  192  A    between atoms: _450  and  _451
REMARK  193  A    between atoms: _454  and  _456
REMARK  194  A    between atoms: _456  and  _457
REMARK  195  A    between atoms: _456  and  _459
REMARK  196  A    between atoms: _459  and  _460
REMARK  197  A    between atoms: _460  and  _461
REMARK  198  A    between atoms: _461  and  _462
REMARK  199  A    between atoms: _462  and  _463
REMARK  200  A    between atoms: _467  and  _469
REMARK  201  A    between atoms: _469  and  _470
REMARK  202  A    between atoms: _469  and  _472
REMARK  203  A    between atoms: _475  and  _477
REMARK  204  A    between atoms: _477  and  _478
REMARK  205  A    between atoms: _477  and  _480
REMARK  206  A    between atoms: _480  and  _481
REMARK  207  A    between atoms: _484  and  _486
REMARK  208  A    between atoms: _486  and  _487
REMARK  209  A    between atoms: _486  and  _489
REMARK  210  A    between atoms: _489  and  _490
REMARK  211  A    between atoms: _493  and  _495
REMARK  212  A    between atoms: _495  and  _496
REMARK  213  A    between atoms: _495  and  _498
REMARK  214  A    between atoms: _498  and  _499
REMARK  215  A    between atoms: _502  and  _504
REMARK  216  A    between atoms: _504  and  _505
REMARK  217  A    between atoms: _504  and  _507
REMARK  218  A    between atoms: _507  and  _508
REMARK  219  A    between atoms: _508  and  _509
REMARK  220  A    between atoms: _509  and  _510
REMARK  221  A    between atoms: _510  and  _511
REMARK  222  A    between atoms: _515  and  _517
REMARK  223  A    between atoms: _517  and  _518
REMARK  224  A    between atoms: _517  and  _520
REMARK  225  A    between atoms: _520  and  _521
REMARK  226  A    between atoms: _526  and  _527
REMARK                            x       y       z     vdW  Elec       q    Type
REMARK                         _______ _______ _______ _____ _____    ______ ____
ROOT
ATOM      1  CA  ASP A   2      37.217  10.458  32.301  0.00  0.00    +0.160 C 
ENDROOT
BRANCH   1   3
ATOM      2  C   ALA A   1      38.544  11.330  34.166  0.00  0.00    +0.238 C 
ATOM      3  N   ASP A   2      37.408  10.807  33.717  0.00  0.00    -0.297 N 
ATOM      4  H   ASP A   2      36.630  10.639  34.387  0.00  0.00    +0.150 HD
ATOM      5  O   ALA A   1      39.556  11.382  33.490  0.00  0.00    -0.274 OA
BRANCH   2   6
ATOM      6  CA  ALA A   1      38.535  11.841  35.623  0.00  0.00    +0.145 C 
ATOM      7  CB  ALA A   1      38.515  10.664  36.604  0.00  0.00    +0.028 C 
BRANCH   6   8
ATOM      8  N   ALA A   1      37.416  12.752  35.911  0.00  0.00    -0.238 NA
ATOM      9  H   ALA A   1      36.813  12.531  36.729  0.00  0.00    +0.142 HD
ENDBRANCH   6   8
ENDBRANCH   2   6
ENDBRANCH   1   3
BRANCH   1  10
ATOM     10  C   ASP A   2      37.540  11.598  31.332  0.00  0.00    +0.241 C 
ATOM     11  N   LEU A   3      36.987  12.783  31.574  0.00  0.00    -0.298 N 
ATOM     12  H   LEU A   3      36.351  12.886  32.390  0.00  0.00    +0.150 HD
ATOM     13  O   ASP A   2      38.288  11.401  30.377  0.00  0.00    -0.273 OA
BRANCH  11  14
ATOM     14  CA  LEU A   3      37.247  13.944  30.728  0.00  0.00    +0.137 C 
BRANCH  14  15
ATOM     15  C   LEU A   3      38.735  14.204  30.578  0.00  0.00    +0.227 C 
ATOM     16  O   LEU A   3      39.218  14.391  29.462  0.00  0.00    -0.286 OA
ENDBRANCH  14  15
BRANCH  14  17
ATOM     17  CB  LEU A   3      36.543  15.207  31.239  0.00  0.00    +0.028 C 
BRANCH  17  18
ATOM     18  CG  LEU A   3      35.040  15.391  31.003  0.00  0.00    +0.002 C 
ATOM     19  CD2 LEU A   3      34.507  16.655  31.678  0.00  0.00    +0.000 C 
ATOM     20  CD1 LEU A   3      34.681  15.378  29.485  0.00  0.00    +0.000 C 
ENDBRANCH  17  18
ENDBRANCH  14  17
ENDBRANCH  11  14
ENDBRANCH   1  10
BRANCH   1  21
ATOM     21  CB  ASP A   2      35.793   9.961  32.085  0.00  0.00    +0.143 C 
BRANCH  21  22
ATOM     22  CG  ASP A   2      35.530   8.630  32.766  0.00  0.00    +0.367 C 
ATOM     23  OD2 ASP A   2      34.405   8.458  33.260  0.00  0.00    -0.246 OA
ATOM     24  OD1 ASP A   2      36.431   7.746  32.792  0.00  0.00    -0.246 OA
ENDBRANCH  21  22
ENDBRANCH   1  21
TORSDOF 10
REMARK  Name = ../refined-set-2016/2uwd/2uwd_pocket.pdb
REMARK  226 active torsions:
REMARK  status: ('A' for Active; 'I' for Inactive)
REMARK    1  A    between atoms: _1  and  _3
REMARK    2  A    between atoms: _3  and  _4
REMARK    3  A    between atoms: _3  and  _6
REMARK    4  A    between atoms: _6  and  _7
REMARK    5  A    between atoms: _13  and  _15
REMARK    6  A    between atoms: _15  and  _16
REMARK    7  A    between atoms: _15  and  _18
REMARK    8  A    between atoms: _18  and  _19
REMARK    9  A    between atoms: _22  and  _24
REMARK   10  A    between atoms: _24  and  _25
REMARK   11  A    between atoms: _24  and  _27
REMARK   12  A    between atoms: _27  and  _28
REMARK   13  A    between atoms: _28  and  _29
REMARK   14  A    between atoms: _32  and  _34
REMARK   15  A    between atoms: _34  and  _35
REMARK   16  A    between atoms: _34  and  _37
REMARK   17  A    between atoms: _37  and  _38
REMARK   18  A    between atoms: _41  and  _43
REMARK   19  A    between atoms: _43  and  _44
REMARK   20  A    between atoms: _43  and  _46
REMARK   21  A    between atoms: _46  and  _47
REMARK   22  A    between atoms: _50  and  _52
REMARK   23  A    between atoms: _52  and  _53
REMARK   24  A    between atoms: _52  and  _55
REMARK   25  A    between atoms: _55  and  _56
REMARK   26  A    between atoms: _58  and  _60
REMARK   27  A    between atoms: _60  and  _61
REMARK   28  A    between atoms: _60  and  _63
REMARK   29  A    between atoms: _63  and  _64
REMARK   30  A    between atoms: _69  and  _71
REMARK   31  A    between atoms: _71  and  _72
REMARK   32  A    between atoms: _71  and  _74
REMARK   33  A    between atoms: _74  and  _75
REMARK   34  A    between atoms: _77  and  _79
REMARK   35  A    between atoms: _79  and  _80
REMARK   36  A    between atoms: _79  and  _82
REMARK   37  A    between atoms: _82  and  _83
REMARK   38  A    between atoms: _85  and  _87
REMARK   39  A    between atoms: _87  and  _88
REMARK   40  A    between atoms: _87  and  _90
REMARK   41  A    between atoms: _90  and  _91
REMARK   42  A    between atoms: _94  and  _96
REMARK   43  A    between atoms: _96  and  _97
REMARK   44  A    between atoms: _100  and  _102
REMARK   45  A    between atoms: _102  and  _103
REMARK   46  A    between atoms: _102  and  _105
REMARK   47  A    between atoms: _105  and  _106
REMARK   48  A    between atoms: _109  and  _111
REMARK   49  A    between atoms: _111  and  _112
REMARK   50  A    between atoms: _111  and  _114
REMARK   51  A    between atoms: _114  and  _115
REMARK   52  A    between atoms: _118  and  _120
REMARK   53  A    between atoms: _120  and  _121
REMARK   54  A    between atoms: _120  and  _123
REMARK   55  A    between atoms: _123  and  _124
REMARK   56  A    between atoms: _124  and  _125
REMARK   57  A    between atoms: _125  and  _126
REMARK   58  A    between atoms: _126  and  _127
REMARK   59  A    between atoms: _131  and  _133
REMARK   60  A    between atoms: _133  and  _134
REMARK   61  A    between atoms: _133  and  _136
REMARK   62  A    between atoms: _136  and  _137
REMARK   63  A    between atoms: _140  and  _142
REMARK   64  A    between atoms: _142  and  _143
REMARK   65  A    between atoms: _142  and  _145
REMARK   66  A    between atoms: _145  and  _146
REMARK   67  A    between atoms: _146  and  _147
REMARK   68  A    between atoms: _150  and  _152
REMARK   69  A    between atoms: _152  and  _153
REMARK   70  A    between atoms: _152  and  _155
REMARK   71  A    between atoms: _155  and  _156
REMARK   72  A    between atoms: _159  and  _161
REMARK   73  A    between atoms: _161  and  _162
REMARK   74  A    between atoms: _161  and  _164
REMARK   75  A    between atoms: _164  and  _165
REMARK   76  A    between atoms: _168  and  _170
REMARK   77  A    between atoms: _170  and  _171
REMARK   78  A    between atoms: _170  and  _173
REMARK   79  A    between atoms: _176  and  _178
REMARK   80  A    between atoms: _178  and  _179
REMARK   81  A    between atoms: _178  and  _181
REMARK   82  A    between atoms: _181  and  _182
REMARK   83  A    between atoms: _185  and  _187
REMARK   84  A    between atoms: _187  and  _188
REMARK   85  A    between atoms: _187  and  _190
REMARK   86  A    between atoms: _190  and  _191
REMARK   87  A    between atoms: _194  and  _196
REMARK   88  A    between atoms: _196  and  _197
REMARK   89  A    between atoms: _199  and  _201
REMARK   90  A    between atoms: _201  and  _202
REMARK   91  A    between atoms: _201  and  _204
REMARK   92  A    between atoms: _204  and  _205
REMARK   93  A    between atoms: _208  and  _210
REMARK   94  A    between atoms: _210  and  _211
REMARK   95  A    between atoms: _213  and  _215
REMARK   96  A    between atoms: _215  and  _216
REMARK   97  A    between atoms: _215  and  _218
REMARK   98  A    between atoms: _218  and  _219
REMARK   99  A    between atoms: _219  and  _220
REMARK  100  A    between atoms: _222  and  _224
REMARK  101  A    between atoms: _224  and  _225
REMARK  102  A    between atoms: _224  and  _227
REMARK  103  A    between atoms: _227  and  _228
REMARK  104  A    between atoms: _231  and  _233
REMARK  105  A    between atoms: _233  and  _234
REMARK  106  A    between atoms: _237  and  _239
REMARK  107  A    between atoms: _239  and  _240
REMARK  108  A    between atoms: _239  and  _242
REMARK  109  A    between atoms: _242  and  _243
REMARK  110  A    between atoms: _246  and  _248
REMARK  111  A    between atoms: _248  and  _249
REMARK  112  A    between atoms: _248  and  _251
REMARK  113  A    between atoms: _251  and  _252
REMARK  114  A    between atoms: _255  and  _257
REMARK  115  A    between atoms: _257  and  _258
REMARK  116  A    between atoms: _257  and  _260
REMARK  117  A    between atoms: _260  and  _261
REMARK  118  A    between atoms: _266  and  _268
REMARK  119  A    between atoms: _268  and  _269
REMARK  120  A    between atoms: _268  and  _271
REMARK  121  A    between atoms: _271  and  _272
REMARK  122  A    between atoms: _277  and  _279
REMARK  123  A    between atoms: _279  and  _280
REMARK  124  A    between atoms: _279  and  _282
REMARK  125  A    between atoms: _282  and  _283
REMARK  126  A    between atoms: _286  and  _288
REMARK  127  A    between atoms: _288  and  _289
REMARK  128  A    between atoms: _291  and  _293
REMARK  129  A    between atoms: _293  and  _294
REMARK  130  A    between atoms: _293  and  _296
REMARK  131  A    between atoms: _296  and  _297
REMARK  132  A    between atoms: _300  and  _302
REMARK  133  A    between atoms: _302  and  _303
REMARK  134  A    between atoms: _302  and  _305
REMARK  135  A    between atoms: _305  and  _306
REMARK  136  A    between atoms: _309  and  _311
REMARK  137  A    between atoms: _311  and  _312
REMARK  138  A    between atoms: _315  and  _317
REMARK  139  A    between atoms: _317  and  _318
REMARK  140  A    between atoms: _320  and  _322
REMARK  141  A    between atoms: _322  and  _323
REMARK  142  A    between atoms: _322  and  _325
REMARK  143  A    between atoms: _325  and  _326
REMARK  144  A    between atoms: _332  and  _334
REMARK  145  A    between atoms: _334  and  _335
REMARK  146  A    between atoms: _337  and  _339
REMARK  147  A    between atoms: _339  and  _340
REMARK  148  A    between atoms: _339  and  _342
REMARK  149  A    between atoms: _345  and  _347
REMARK  150  A    between atoms: _347  and  _348
REMARK  151  A    between atoms: _350  and  _352
REMARK  152  A    between atoms: _352  and  _353
REMARK  153  A    between atoms: _352  and  _355
REMARK  154  A    between atoms: _355  and  _356
REMARK  155  A    between atoms: _362  and  _364
REMARK  156  A    between atoms: _364  and  _365
REMARK  157  A    between atoms: _364  and  _367
REMARK  158  A    between atoms: _367  and  _368
REMARK  159  A    between atoms: _373  and  _374
REMARK  160  A    between atoms: _376  and  _378
REMARK  161  A    between atoms: _378  and  _379
REMARK  162  A    between atoms: _382  and  _384
REMARK  163  A    between atoms: _384  and  _385
REMARK  164  A    between atoms: _384  and  _387
REMARK  165  A    between atoms: _390  and  _392
REMARK  166  A    between atoms: _392  and  _393
REMARK  167  A    between atoms: _392  and  _395
REMARK  168  A    between atoms: _398  and  _400
REMARK  169  A    between atoms: _400  and  _401
REMARK  170  A    between atoms: _400  and  _403
REMARK  171  A    between atoms: _403  and  _404
REMARK  172  A    between atoms: _407  and  _409
REMARK  173  A    between atoms: _409  and  _410
REMARK  174  A    between atoms: _409  and  _412
REMARK  175  A    between atoms: _412  and  _413
REMARK  176  A    between atoms: _416  and  _418
REMARK  177  A    between atoms: _418  and  _419
REMARK  178  A    between atoms: _418  and  _421
REMARK  179  A    between atoms: _421  and  _422
REMARK  180  A    between atoms: _422  and  _423
REMARK  181  A    between atoms: _423  and  _424
REMARK  182  A    between atoms: _424  and  _425
REMARK  183  A    between atoms: _429  and  _431
REMARK  184  A    between atoms: _431  and  _432
REMARK  185  A    between atoms: _431  and  _434
REMARK  186  A    between atoms: _434  and  _435
REMARK  187  A    between atoms: _440  and  _442
REMARK  188  A    between atoms: _442  and  _443
REMARK  189  A    between atoms: _445  and  _447
REMARK  190  A    between atoms: _447  and  _448
REMARK  191  A    between atoms: _447  and  _450
REMARK  192  A    between atoms: _450  and  _451
REMARK  193  A    between atoms: _454  and  _456
REMARK  194  A    between atoms: _456  and  _457
REMARK  195  A    between atoms: _456  and  _459
REMARK  196  A    between atoms: _459  and  _460
REMARK  197  A    between atoms: _460  and  _461
REMARK  198  A    between atoms: _461  and  _462
REMARK  199  A    between atoms: _462  and  _463
REMARK  200  A    between atoms: _467  and  _469
REMARK  201  A    between atoms: _469  and  _470
REMARK  202  A    between atoms: _469  and  _472
REMARK  203  A    between atoms: _475  and  _477
REMARK  204  A    between atoms: _477  and  _478
REMARK  205  A    between atoms: _477  and  _480
REMARK  206  A    between atoms: _480  and  _481
REMARK  207  A    between atoms: _484  and  _486
REMARK  208  A    between atoms: _486  and  _487
REMARK  209  A    between atoms: _486  and  _489
REMARK  210  A    between atoms: _489  and  _490
REMARK  211  A    between atoms: _493  and  _495
REMARK  212  A    between atoms: _495  and  _496
REMARK  213  A    between atoms: _495  and  _498
REMARK  214  A    between atoms: _498  and  _499
REMARK  215  A    between atoms: _502  and  _504
REMARK  216  A    between atoms: _504  and  _505
REMARK  217  A    between atoms: _504  and  _507
REMARK  218  A    between atoms: _507  and  _508
REMARK  219  A    between atoms: _508  and  _509
REMARK  220  A    between atoms: _509  and  _510
REMARK  221  A    between atoms: _510  and  _511
REMARK  222  A    between atoms: _515  and  _517
REMARK  223  A    between atoms: _517  and  _518
REMARK  224  A    between atoms: _517  and  _520
REMARK  225  A    between atoms: _520  and  _521
REMARK  226  A    between atoms: _526  and  _527
REMARK                            x       y       z     vdW  Elec       q    Type
REMARK                         _______ _______ _______ _____ _____    ______ ____
ROOT
ATOM      1  C   LEU A   3      37.076  10.415  27.140  0.00  0.00    +0.241 C 
ATOM      2  N   GLY A   4      37.666   9.654  28.062  0.00  0.00    -0.295 N 
ATOM      3  H   GLY A   4      38.336  10.091  28.727  0.00  0.00    +0.150 HD
ATOM      4  O   LEU A   3      36.311   9.948  26.302  0.00  0.00    -0.273 OA
ENDROOT
BRANCH   2   5
ATOM      5  CA  GLY A   4      37.394   8.210  28.164  0.00  0.00    +0.176 C 
BRANCH   5   6
ATOM      6  C   GLY A   4      37.906   7.330  27.031  0.00  0.00    +0.243 C 
ATOM      7  O   GLY A   4      37.436   6.199  26.871  0.00  0.00    -0.273 OA
ATOM      8  N   THR A   5      38.854   7.847  26.246  0.00  0.00    -0.295 N 
ATOM      9  H   THR A   5      39.191   8.809  26.453  0.00  0.00    +0.150 HD
BRANCH   8  10
ATOM     10  CA  THR A   5      39.444   7.141  25.114  0.00  0.00    +0.176 C 
BRANCH  10  11
ATOM     11  C   THR A   5      40.790   6.552  25.524  0.00  0.00    +0.243 C 
ATOM     12  O   THR A   5      41.407   7.024  26.478  0.00  0.00    -0.273 OA
ATOM     13  N   ILE A   6      41.237   5.539  24.787  0.00  0.00    -0.297 N 
ATOM     14  H   ILE A   6      40.580   5.076  24.127  0.00  0.00    +0.150 HD
BRANCH  13  15
ATOM     15  CA  ILE A   6      42.617   5.046  24.865  0.00  0.00    +0.149 C 
BRANCH  15  16
ATOM     16  C   ILE A   6      43.507   5.832  23.861  0.00  0.00    +0.241 C 
ATOM     17  N   ALA A   7      43.478   7.157  23.998  0.00  0.00    -0.298 N 
ATOM     18  H   ALA A   7      43.056   7.558  24.860  0.00  0.00    +0.150 HD
ATOM     19  O   ILE A   6      44.187   5.263  23.000  0.00  0.00    -0.273 OA
BRANCH  17  20
ATOM     20  CA  ALA A   7      44.012   8.071  22.992  0.00  0.00    +0.137 C 
ATOM     21  CB  ALA A   7      43.675   9.536  23.353  0.00  0.00    +0.030 C 
BRANCH  20  22
ATOM     22  C   ALA A   7      45.511   7.909  22.698  0.00  0.00    +0.227 C 
ATOM     23  O   ALA A   7      45.921   8.052  21.548  0.00  0.00    -0.286 OA
ENDBRANCH  20  22
ENDBRANCH  17  20
ENDBRANCH  15  16
BRANCH  15  24
ATOM     24  CB  ILE A   6      42.704   3.490  24.709  0.00  0.00    +0.027 C 
ATOM     25  CG2 ILE A   6      42.325   2.803  26.015  0.00  0.00    +0.002 C 
BRANCH  24  26
ATOM     26  CG1 ILE A   6      41.758   2.944  23.620  0.00  0.00    +0.002 C 
ATOM     27  CD1 ILE A   6      42.178   3.164  22.182  0.00  0.00    +0.000 C 
ENDBRANCH  24  26
ENDBRANCH  15  24
ENDBRANCH  13  15
ENDBRANCH  10  11
BRANCH  10  28
ATOM     28  CB  THR A   5      39.696   8.066  23.848  0.00  0.00    +0.137 C 
ATOM     29  CG2 THR A   5      38.426   8.748  23.366  0.00  0.00    +0.034 C 
BRANCH  28  30
ATOM     30  OG1 THR A   5      40.685   9.064  24.146  0.00  0.00    -0.382 OA
ATOM     31  HG1 THR A   5      40.370   9.625  24.898  0.00  0.00    +0.210 HD
ENDBRANCH  28  30
ENDBRANCH  10  28
ENDBRANCH   8  10
ENDBRANCH   5   6
ENDBRANCH   2   5
BRANCH   1  32
ATOM     32  CA  LEU A   3      37.427  11.932  27.176  0.00  0.00    +0.149 C 
BRANCH  32  34
ATOM     33  C   ASN A   2      39.811  11.603  26.631  0.00  0.00    +0.241 C 
ATOM     34  N   LEU A   3      38.869  12.174  27.386  0.00  0.00    -0.297 N 
ATOM     35  H   LEU A   3      39.162  12.814  28.152  0.00  0.00    +0.150 HD
ATOM     36  O   ASN A   2      39.560  10.788  25.734  0.00  0.00    -0.273 OA
BRANCH  33  37
ATOM     37  CA  ASN A   2      41.254  12.000  26.939  0.00  0.00    +0.158 C 
BRANCH  37  40
ATOM     38  C   ASN A   1      41.396  10.866  29.145  0.00  0.00    +0.239 C 
ATOM     39  O   ASN A   1      40.804   9.843  28.786  0.00  0.00    -0.274 OA
ATOM     40  N   ASN A   2      41.621  11.914  28.357  0.00  0.00    -0.297 N 
ATOM     41  H   ASN A   2      42.095  12.738  28.780  0.00  0.00    +0.150 HD
BRANCH  38  42
ATOM     42  CA  ASN A   1      41.918  11.029  30.583  0.00  0.00    +0.154 C 
BRANCH  42  43
ATOM     43  N   ASN A   1      41.333  12.200  31.218  0.00  0.00    -0.238 NA
ATOM     44  H   ASN A   1      40.569  12.039  31.905  0.00  0.00    +0.142 HD
ENDBRANCH  42  43
BRANCH  42  45
ATOM     45  CB  ASN A   1      41.609   9.802  31.441  0.00  0.00    +0.111 C 
BRANCH  45  46
ATOM     46  CG  ASN A   1      42.512   8.619  31.153  0.00  0.00    +0.221 C 
ATOM     47  OD1 ASN A   1      42.244   7.513  31.629  0.00  0.00    -0.275 OA
ATOM     48  ND2 ASN A   1      43.570   8.827  30.365  0.00  0.00    -0.329 N 
ATOM     49 HD21 ASN A   1      44.207   8.039  30.130  0.00  0.00    +0.145 HD
ATOM     50 HD22 ASN A   1      43.757   9.777  29.986  0.00  0.00    +0.145 HD
ENDBRANCH  45  46
ENDBRANCH  42  45
ENDBRANCH  38  42
ENDBRANCH  37  40
BRANCH  37  51
ATOM     51  CB  ASN A   2      42.268  11.200  26.086  0.00  0.00    +0.114 C 
BRANCH  51  52
ATOM     52  CG  ASN A   2      43.696  11.584  26.401  0.00  0.00    +0.222 C 
ATOM     53  ND2 ASN A   2      44.500  10.619  26.829  0.00  0.00    -0.329 N 
ATOM     54 HD21 ASN A   2      45.479  10.841  27.103  0.00  0.00    +0.145 HD
ATOM     55 HD22 ASN A   2      44.152   9.641  26.891  0.00  0.00    +0.145 HD
ATOM     56  OD1 ASN A   2      44.053  12.747  26.309  0.00  0.00    -0.275 OA
ENDBRANCH  51  52
ENDBRANCH  37  51
ENDBRANCH  33  37
ENDBRANCH  32  34
BRANCH  32  57
ATOM     57  CB  LEU A   3      36.933  12.709  25.915  0.00  0.00    +0.029 C 
BRANCH  57  58
ATOM     58  CG  LEU A   3      37.241  14.229  25.991  0.00  0.00    +0.002 C 
ATOM     59  CD2 LEU A   3      36.174  15.062  25.443  0.00  0.00    +0.000 C 
ATOM     60  CD1 LEU A   3      38.580  14.604  25.300  0.00  0.00    +0.000 C 
ENDBRANCH  57  58
ENDBRANCH  32  57
ENDBRANCH   1  32
TORSDOF 24
REMARK  Name = ../refined-set-2016/2uwd/2uwd_pocket.pdb
REMARK  226 active torsions:
REMARK  status: ('A' for Active; 'I' for Inactive)
REMARK    1  A    between atoms: _1  and  _3
REMARK    2  A    between atoms: _3  and  _4
REMARK    3  A    between atoms: _3  and  _6
REMARK    4  A    between atoms: _6  and  _7
REMARK    5  A    between atoms: _13  and  _15
REMARK    6  A    between atoms: _15  and  _16
REMARK    7  A    between atoms: _15  and  _18
REMARK    8  A    between atoms: _18  and  _19
REMARK    9  A    between atoms: _22  and  _24
REMARK   10  A    between atoms: _24  and  _25
REMARK   11  A    between atoms: _24  and  _27
REMARK   12  A    between atoms: _27  and  _28
REMARK   13  A    between atoms: _28  and  _29
REMARK   14  A    between atoms: _32  and  _34
REMARK   15  A    between atoms: _34  and  _35
REMARK   16  A    between atoms: _34  and  _37
REMARK   17  A    between atoms: _37  and  _38
REMARK   18  A    between atoms: _41  and  _43
REMARK   19  A    between atoms: _43  and  _44
REMARK   20  A    between atoms: _43  and  _46
REMARK   21  A    between atoms: _46  and  _47
REMARK   22  A    between atoms: _50  and  _52
REMARK   23  A    between atoms: _52  and  _53
REMARK   24  A    between atoms: _52  and  _55
REMARK   25  A    between atoms: _55  and  _56
REMARK   26  A    between atoms: _58  and  _60
REMARK   27  A    between atoms: _60  and  _61
REMARK   28  A    between atoms: _60  and  _63
REMARK   29  A    between atoms: _63  and  _64
REMARK   30  A    between atoms: _69  and  _71
REMARK   31  A    between atoms: _71  and  _72
REMARK   32  A    between atoms: _71  and  _74
REMARK   33  A    between atoms: _74  and  _75
REMARK   34  A    between atoms: _77  and  _79
REMARK   35  A    between atoms: _79  and  _80
REMARK   36  A    between atoms: _79  and  _82
REMARK   37  A    between atoms: _82  and  _83
REMARK   38  A    between atoms: _85  and  _87
REMARK   39  A    between atoms: _87  and  _88
REMARK   40  A    between atoms: _87  and  _90
REMARK   41  A    between atoms: _90  and  _91
REMARK   42  A    between atoms: _94  and  _96
REMARK   43  A    between atoms: _96  and  _97
REMARK   44  A    between atoms: _100  and  _102
REMARK   45  A    between atoms: _102  and  _103
REMARK   46  A    between atoms: _102  and  _105
REMARK   47  A    between atoms: _105  and  _106
REMARK   48  A    between atoms: _109  and  _111
REMARK   49  A    between atoms: _111  and  _112
REMARK   50  A    between atoms: _111  and  _114
REMARK   51  A    between atoms: _114  and  _115
REMARK   52  A    between atoms: _118  and  _120
REMARK   53  A    between atoms: _120  and  _121
REMARK   54  A    between atoms: _120  and  _123
REMARK   55  A    between atoms: _123  and  _124
REMARK   56  A    between atoms: _124  and  _125
REMARK   57  A    between atoms: _125  and  _126
REMARK   58  A    between atoms: _126  and  _127
REMARK   59  A    between atoms: _131  and  _133
REMARK   60  A    between atoms: _133  and  _134
REMARK   61  A    between atoms: _133  and  _136
REMARK   62  A    between atoms: _136  and  _137
REMARK   63  A    between atoms: _140  and  _142
REMARK   64  A    between atoms: _142  and  _143
REMARK   65  A    between atoms: _142  and  _145
REMARK   66  A    between atoms: _145  and  _146
REMARK   67  A    between atoms: _146  and  _147
REMARK   68  A    between atoms: _150  and  _152
REMARK   69  A    between atoms: _152  and  _153
REMARK   70  A    between atoms: _152  and  _155
REMARK   71  A    between atoms: _155  and  _156
REMARK   72  A    between atoms: _159  and  _161
REMARK   73  A    between atoms: _161  and  _162
REMARK   74  A    between atoms: _161  and  _164
REMARK   75  A    between atoms: _164  and  _165
REMARK   76  A    between atoms: _168  and  _170
REMARK   77  A    between atoms: _170  and  _171
REMARK   78  A    between atoms: _170  and  _173
REMARK   79  A    between atoms: _176  and  _178
REMARK   80  A    between atoms: _178  and  _179
REMARK   81  A    between atoms: _178  and  _181
REMARK   82  A    between atoms: _181  and  _182
REMARK   83  A    between atoms: _185  and  _187
REMARK   84  A    between atoms: _187  and  _188
REMARK   85  A    between atoms: _187  and  _190
REMARK   86  A    between atoms: _190  and  _191
REMARK   87  A    between atoms: _194  and  _196
REMARK   88  A    between atoms: _196  and  _197
REMARK   89  A    between atoms: _199  and  _201
REMARK   90  A    between atoms: _201  and  _202
REMARK   91  A    between atoms: _201  and  _204
REMARK   92  A    between atoms: _204  and  _205
REMARK   93  A    between atoms: _208  and  _210
REMARK   94  A    between atoms: _210  and  _211
REMARK   95  A    between atoms: _213  and  _215
REMARK   96  A    between atoms: _215  and  _216
REMARK   97  A    between atoms: _215  and  _218
REMARK   98  A    between atoms: _218  and  _219
REMARK   99  A    between atoms: _219  and  _220
REMARK  100  A    between atoms: _222  and  _224
REMARK  101  A    between atoms: _224  and  _225
REMARK  102  A    between atoms: _224  and  _227
REMARK  103  A    between atoms: _227  and  _228
REMARK  104  A    between atoms: _231  and  _233
REMARK  105  A    between atoms: _233  and  _234
REMARK  106  A    between atoms: _237  and  _239
REMARK  107  A    between atoms: _239  and  _240
REMARK  108  A    between atoms: _239  and  _242
REMARK  109  A    between atoms: _242  and  _243
REMARK  110  A    between atoms: _246  and  _248
REMARK  111  A    between atoms: _248  and  _249
REMARK  112  A    between atoms: _248  and  _251
REMARK  113  A    between atoms: _251  and  _252
REMARK  114  A    between atoms: _255  and  _257
REMARK  115  A    between atoms: _257  and  _258
REMARK  116  A    between atoms: _257  and  _260
REMARK  117  A    between atoms: _260  and  _261
REMARK  118  A    between atoms: _266  and  _268
REMARK  119  A    between atoms: _268  and  _269
REMARK  120  A    between atoms: _268  and  _271
REMARK  121  A    between atoms: _271  and  _272
REMARK  122  A    between atoms: _277  and  _279
REMARK  123  A    between atoms: _279  and  _280
REMARK  124  A    between atoms: _279  and  _282
REMARK  125  A    between atoms: _282  and  _283
REMARK  126  A    between atoms: _286  and  _288
REMARK  127  A    between atoms: _288  and  _289
REMARK  128  A    between atoms: _291  and  _293
REMARK  129  A    between atoms: _293  and  _294
REMARK  130  A    between atoms: _293  and  _296
REMARK  131  A    between atoms: _296  and  _297
REMARK  132  A    between atoms: _300  and  _302
REMARK  133  A    between atoms: _302  and  _303
REMARK  134  A    between atoms: _302  and  _305
REMARK  135  A    between atoms: _305  and  _306
REMARK  136  A    between atoms: _309  and  _311
REMARK  137  A    between atoms: _311  and  _312
REMARK  138  A    between atoms: _315  and  _317
REMARK  139  A    between atoms: _317  and  _318
REMARK  140  A    between atoms: _320  and  _322
REMARK  141  A    between atoms: _322  and  _323
REMARK  142  A    between atoms: _322  and  _325
REMARK  143  A    between atoms: _325  and  _326
REMARK  144  A    between atoms: _332  and  _334
REMARK  145  A    between atoms: _334  and  _335
REMARK  146  A    between atoms: _337  and  _339
REMARK  147  A    between atoms: _339  and  _340
REMARK  148  A    between atoms: _339  and  _342
REMARK  149  A    between atoms: _345  and  _347
REMARK  150  A    between atoms: _347  and  _348
REMARK  151  A    between atoms: _350  and  _352
REMARK  152  A    between atoms: _352  and  _353
REMARK  153  A    between atoms: _352  and  _355
REMARK  154  A    between atoms: _355  and  _356
REMARK  155  A    between atoms: _362  and  _364
REMARK  156  A    between atoms: _364  and  _365
REMARK  157  A    between atoms: _364  and  _367
REMARK  158  A    between atoms: _367  and  _368
REMARK  159  A    between atoms: _373  and  _374
REMARK  160  A    between atoms: _376  and  _378
REMARK  161  A    between atoms: _378  and  _379
REMARK  162  A    between atoms: _382  and  _384
REMARK  163  A    between atoms: _384  and  _385
REMARK  164  A    between atoms: _384  and  _387
REMARK  165  A    between atoms: _390  and  _392
REMARK  166  A    between atoms: _392  and  _393
REMARK  167  A    between atoms: _392  and  _395
REMARK  168  A    between atoms: _398  and  _400
REMARK  169  A    between atoms: _400  and  _401
REMARK  170  A    between atoms: _400  and  _403
REMARK  171  A    between atoms: _403  and  _404
REMARK  172  A    between atoms: _407  and  _409
REMARK  173  A    between atoms: _409  and  _410
REMARK  174  A    between atoms: _409  and  _412
REMARK  175  A    between atoms: _412  and  _413
REMARK  176  A    between atoms: _416  and  _418
REMARK  177  A    between atoms: _418  and  _419
REMARK  178  A    between atoms: _418  and  _421
REMARK  179  A    between atoms: _421  and  _422
REMARK  180  A    between atoms: _422  and  _423
REMARK  181  A    between atoms: _423  and  _424
REMARK  182  A    between atoms: _424  and  _425
REMARK  183  A    between atoms: _429  and  _431
REMARK  184  A    between atoms: _431  and  _432
REMARK  185  A    between atoms: _431  and  _434
REMARK  186  A    between atoms: _434  and  _435
REMARK  187  A    between atoms: _440  and  _442
REMARK  188  A    between atoms: _442  and  _443
REMARK  189  A    between atoms: _445  and  _447
REMARK  190  A    between atoms: _447  and  _448
REMARK  191  A    between atoms: _447  and  _450
REMARK  192  A    between atoms: _450  and  _451
REMARK  193  A    between atoms: _454  and  _456
REMARK  194  A    between atoms: _456  and  _457
REMARK  195  A    between atoms: _456  and  _459
REMARK  196  A    between atoms: _459  and  _460
REMARK  197  A    between atoms: _460  and  _461
REMARK  198  A    between atoms: _461  and  _462
REMARK  199  A    between atoms: _462  and  _463
REMARK  200  A    between atoms: _467  and  _469
REMARK  201  A    between atoms: _469  and  _470
REMARK  202  A    between atoms: _469  and  _472
REMARK  203  A    between atoms: _475  and  _477
REMARK  204  A    between atoms: _477  and  _478
REMARK  205  A    between atoms: _477  and  _480
REMARK  206  A    between atoms: _480  and  _481
REMARK  207  A    between atoms: _484  and  _486
REMARK  208  A    between atoms: _486  and  _487
REMARK  209  A    between atoms: _486  and  _489
REMARK  210  A    between atoms: _489  and  _490
REMARK  211  A    between atoms: _493  and  _495
REMARK  212  A    between atoms: _495  and  _496
REMARK  213  A    between atoms: _495  and  _498
REMARK  214  A    between atoms: _498  and  _499
REMARK  215  A    between atoms: _502  and  _504
REMARK  216  A    between atoms: _504  and  _505
REMARK  217  A    between atoms: _504  and  _507
REMARK  218  A    between atoms: _507  and  _508
REMARK  219  A    between atoms: _508  and  _509
REMARK  220  A    between atoms: _509  and  _510
REMARK  221  A    between atoms: _510  and  _511
REMARK  222  A    between atoms: _515  and  _517
REMARK  223  A    between atoms: _517  and  _518
REMARK  224  A    between atoms: _517  and  _520
REMARK  225  A    between atoms: _520  and  _521
REMARK  226  A    between atoms: _526  and  _527
REMARK                            x       y       z     vdW  Elec       q    Type
REMARK                         _______ _______ _______ _____ _____    ______ ____
ROOT
ATOM      1  CA  GLY A   1      37.241   5.751  14.702  0.00  0.00    +0.156 C 
ENDROOT
BRANCH   1   2
ATOM      2  N   GLY A   1      38.054   6.399  13.661  0.00  0.00    -0.238 NA
ATOM      3  H   GLY A   1      37.601   6.650  12.759  0.00  0.00    +0.142 HD
ENDBRANCH   1   2
BRANCH   1   4
ATOM      4  C   GLY A   1      37.611   4.310  14.990  0.00  0.00    +0.226 C 
ATOM      5  O   GLY A   1      37.388   3.826  16.101  0.00  0.00    -0.287 OA
ENDBRANCH   1   4
TORSDOF 2
REMARK  Name = ../refined-set-2016/2uwd/2uwd_pocket.pdb
REMARK  226 active torsions:
REMARK  status: ('A' for Active; 'I' for Inactive)
REMARK    1  A    between atoms: _1  and  _3
REMARK    2  A    between atoms: _3  and  _4
REMARK    3  A    between atoms: _3  and  _6
REMARK    4  A    between atoms: _6  and  _7
REMARK    5  A    between atoms: _13  and  _15
REMARK    6  A    between atoms: _15  and  _16
REMARK    7  A    between atoms: _15  and  _18
REMARK    8  A    between atoms: _18  and  _19
REMARK    9  A    between atoms: _22  and  _24
REMARK   10  A    between atoms: _24  and  _25
REMARK   11  A    between atoms: _24  and  _27
REMARK   12  A    between atoms: _27  and  _28
REMARK   13  A    between atoms: _28  and  _29
REMARK   14  A    between atoms: _32  and  _34
REMARK   15  A    between atoms: _34  and  _35
REMARK   16  A    between atoms: _34  and  _37
REMARK   17  A    between atoms: _37  and  _38
REMARK   18  A    between atoms: _41  and  _43
REMARK   19  A    between atoms: _43  and  _44
REMARK   20  A    between atoms: _43  and  _46
REMARK   21  A    between atoms: _46  and  _47
REMARK   22  A    between atoms: _50  and  _52
REMARK   23  A    between atoms: _52  and  _53
REMARK   24  A    between atoms: _52  and  _55
REMARK   25  A    between atoms: _55  and  _56
REMARK   26  A    between atoms: _58  and  _60
REMARK   27  A    between atoms: _60  and  _61
REMARK   28  A    between atoms: _60  and  _63
REMARK   29  A    between atoms: _63  and  _64
REMARK   30  A    between atoms: _69  and  _71
REMARK   31  A    between atoms: _71  and  _72
REMARK   32  A    between atoms: _71  and  _74
REMARK   33  A    between atoms: _74  and  _75
REMARK   34  A    between atoms: _77  and  _79
REMARK   35  A    between atoms: _79  and  _80
REMARK   36  A    between atoms: _79  and  _82
REMARK   37  A    between atoms: _82  and  _83
REMARK   38  A    between atoms: _85  and  _87
REMARK   39  A    between atoms: _87  and  _88
REMARK   40  A    between atoms: _87  and  _90
REMARK   41  A    between atoms: _90  and  _91
REMARK   42  A    between atoms: _94  and  _96
REMARK   43  A    between atoms: _96  and  _97
REMARK   44  A    between atoms: _100  and  _102
REMARK   45  A    between atoms: _102  and  _103
REMARK   46  A    between atoms: _102  and  _105
REMARK   47  A    between atoms: _105  and  _106
REMARK   48  A    between atoms: _109  and  _111
REMARK   49  A    between atoms: _111  and  _112
REMARK   50  A    between atoms: _111  and  _114
REMARK   51  A    between atoms: _114  and  _115
REMARK   52  A    between atoms: _118  and  _120
REMARK   53  A    between atoms: _120  and  _121
REMARK   54  A    between atoms: _120  and  _123
REMARK   55  A    between atoms: _123  and  _124
REMARK   56  A    between atoms: _124  and  _125
REMARK   57  A    between atoms: _125  and  _126
REMARK   58  A    between atoms: _126  and  _127
REMARK   59  A    between atoms: _131  and  _133
REMARK   60  A    between atoms: _133  and  _134
REMARK   61  A    between atoms: _133  and  _136
REMARK   62  A    between atoms: _136  and  _137
REMARK   63  A    between atoms: _140  and  _142
REMARK   64  A    between atoms: _142  and  _143
REMARK   65  A    between atoms: _142  and  _145
REMARK   66  A    between atoms: _145  and  _146
REMARK   67  A    between atoms: _146  and  _147
REMARK   68  A    between atoms: _150  and  _152
REMARK   69  A    between atoms: _152  and  _153
REMARK   70  A    between atoms: _152  and  _155
REMARK   71  A    between atoms: _155  and  _156
REMARK   72  A    between atoms: _159  and  _161
REMARK   73  A    between atoms: _161  and  _162
REMARK   74  A    between atoms: _161  and  _164
REMARK   75  A    between atoms: _164  and  _165
REMARK   76  A    between atoms: _168  and  _170
REMARK   77  A    between atoms: _170  and  _171
REMARK   78  A    between atoms: _170  and  _173
REMARK   79  A    between atoms: _176  and  _178
REMARK   80  A    between atoms: _178  and  _179
REMARK   81  A    between atoms: _178  and  _181
REMARK   82  A    between atoms: _181  and  _182
REMARK   83  A    between atoms: _185  and  _187
REMARK   84  A    between atoms: _187  and  _188
REMARK   85  A    between atoms: _187  and  _190
REMARK   86  A    between atoms: _190  and  _191
REMARK   87  A    between atoms: _194  and  _196
REMARK   88  A    between atoms: _196  and  _197
REMARK   89  A    between atoms: _199  and  _201
REMARK   90  A    between atoms: _201  and  _202
REMARK   91  A    between atoms: _201  and  _204
REMARK   92  A    between atoms: _204  and  _205
REMARK   93  A    between atoms: _208  and  _210
REMARK   94  A    between atoms: _210  and  _211
REMARK   95  A    between atoms: _213  and  _215
REMARK   96  A    between atoms: _215  and  _216
REMARK   97  A    between atoms: _215  and  _218
REMARK   98  A    between atoms: _218  and  _219
REMARK   99  A    between atoms: _219  and  _220
REMARK  100  A    between atoms: _222  and  _224
REMARK  101  A    between atoms: _224  and  _225
REMARK  102  A    between atoms: _224  and  _227
REMARK  103  A    between atoms: _227  and  _228
REMARK  104  A    between atoms: _231  and  _233
REMARK  105  A    between atoms: _233  and  _234
REMARK  106  A    between atoms: _237  and  _239
REMARK  107  A    between atoms: _239  and  _240
REMARK  108  A    between atoms: _239  and  _242
REMARK  109  A    between atoms: _242  and  _243
REMARK  110  A    between atoms: _246  and  _248
REMARK  111  A    between atoms: _248  and  _249
REMARK  112  A    between atoms: _248  and  _251
REMARK  113  A    between atoms: _251  and  _252
REMARK  114  A    between atoms: _255  and  _257
REMARK  115  A    between atoms: _257  and  _258
REMARK  116  A    between atoms: _257  and  _260
REMARK  117  A    between atoms: _260  and  _261
REMARK  118  A    between atoms: _266  and  _268
REMARK  119  A    between atoms: _268  and  _269
REMARK  120  A    between atoms: _268  and  _271
REMARK  121  A    between atoms: _271  and  _272
REMARK  122  A    between atoms: _277  and  _279
REMARK  123  A    between atoms: _279  and  _280
REMARK  124  A    between atoms: _279  and  _282
REMARK  125  A    between atoms: _282  and  _283
REMARK  126  A    between atoms: _286  and  _288
REMARK  127  A    between atoms: _288  and  _289
REMARK  128  A    between atoms: _291  and  _293
REMARK  129  A    between atoms: _293  and  _294
REMARK  130  A    between atoms: _293  and  _296
REMARK  131  A    between atoms: _296  and  _297
REMARK  132  A    between atoms: _300  and  _302
REMARK  133  A    between atoms: _302  and  _303
REMARK  134  A    between atoms: _302  and  _305
REMARK  135  A    between atoms: _305  and  _306
REMARK  136  A    between atoms: _309  and  _311
REMARK  137  A    between atoms: _311  and  _312
REMARK  138  A    between atoms: _315  and  _317
REMARK  139  A    between atoms: _317  and  _318
REMARK  140  A    between atoms: _320  and  _322
REMARK  141  A    between atoms: _322  and  _323
REMARK  142  A    between atoms: _322  and  _325
REMARK  143  A    between atoms: _325  and  _326
REMARK  144  A    between atoms: _332  and  _334
REMARK  145  A    between atoms: _334  and  _335
REMARK  146  A    between atoms: _337  and  _339
REMARK  147  A    between atoms: _339  and  _340
REMARK  148  A    between atoms: _339  and  _342
REMARK  149  A    between atoms: _345  and  _347
REMARK  150  A    between atoms: _347  and  _348
REMARK  151  A    between atoms: _350  and  _352
REMARK  152  A    between atoms: _352  and  _353
REMARK  153  A    between atoms: _352  and  _355
REMARK  154  A    between atoms: _355  and  _356
REMARK  155  A    between atoms: _362  and  _364
REMARK  156  A    between atoms: _364  and  _365
REMARK  157  A    between atoms: _364  and  _367
REMARK  158  A    between atoms: _367  and  _368
REMARK  159  A    between atoms: _373  and  _374
REMARK  160  A    between atoms: _376  and  _378
REMARK  161  A    between atoms: _378  and  _379
REMARK  162  A    between atoms: _382  and  _384
REMARK  163  A    between atoms: _384  and  _385
REMARK  164  A    between atoms: _384  and  _387
REMARK  165  A    between atoms: _390  and  _392
REMARK  166  A    between atoms: _392  and  _393
REMARK  167  A    between atoms: _392  and  _395
REMARK  168  A    between atoms: _398  and  _400
REMARK  169  A    between atoms: _400  and  _401
REMARK  170  A    between atoms: _400  and  _403
REMARK  171  A    between atoms: _403  and  _404
REMARK  172  A    between atoms: _407  and  _409
REMARK  173  A    between atoms: _409  and  _410
REMARK  174  A    between atoms: _409  and  _412
REMARK  175  A    between atoms: _412  and  _413
REMARK  176  A    between atoms: _416  and  _418
REMARK  177  A    between atoms: _418  and  _419
REMARK  178  A    between atoms: _418  and  _421
REMARK  179  A    between atoms: _421  and  _422
REMARK  180  A    between atoms: _422  and  _423
REMARK  181  A    between atoms: _423  and  _424
REMARK  182  A    between atoms: _424  and  _425
REMARK  183  A    between atoms: _429  and  _431
REMARK  184  A    between atoms: _431  and  _432
REMARK  185  A    between atoms: _431  and  _434
REMARK  186  A    between atoms: _434  and  _435
REMARK  187  A    between atoms: _440  and  _442
REMARK  188  A    between atoms: _442  and  _443
REMARK  189  A    between atoms: _445  and  _447
REMARK  190  A    between atoms: _447  and  _448
REMARK  191  A    between atoms: _447  and  _450
REMARK  192  A    between atoms: _450  and  _451
REMARK  193  A    between atoms: _454  and  _456
REMARK  194  A    between atoms: _456  and  _457
REMARK  195  A    between atoms: _456  and  _459
REMARK  196  A    between atoms: _459  and  _460
REMARK  197  A    between atoms: _460  and  _461
REMARK  198  A    between atoms: _461  and  _462
REMARK  199  A    between atoms: _462  and  _463
REMARK  200  A    between atoms: _467  and  _469
REMARK  201  A    between atoms: _469  and  _470
REMARK  202  A    between atoms: _469  and  _472
REMARK  203  A    between atoms: _475  and  _477
REMARK  204  A    between atoms: _477  and  _478
REMARK  205  A    between atoms: _477  and  _480
REMARK  206  A    between atoms: _480  and  _481
REMARK  207  A    between atoms: _484  and  _486
REMARK  208  A    between atoms: _486  and  _487
REMARK  209  A    between atoms: _486  and  _489
REMARK  210  A    between atoms: _489  and  _490
REMARK  211  A    between atoms: _493  and  _495
REMARK  212  A    between atoms: _495  and  _496
REMARK  213  A    between atoms: _495  and  _498
REMARK  214  A    between atoms: _498  and  _499
REMARK  215  A    between atoms: _502  and  _504
REMARK  216  A    between atoms: _504  and  _505
REMARK  217  A    between atoms: _504  and  _507
REMARK  218  A    between atoms: _507  and  _508
REMARK  219  A    between atoms: _508  and  _509
REMARK  220  A    between atoms: _509  and  _510
REMARK  221  A    between atoms: _510  and  _511
REMARK  222  A    between atoms: _515  and  _517
REMARK  223  A    between atoms: _517  and  _518
REMARK  224  A    between atoms: _517  and  _520
REMARK  225  A    between atoms: _520  and  _521
REMARK  226  A    between atoms: _526  and  _527
REMARK                            x       y       z     vdW  Elec       q    Type
REMARK                         _______ _______ _______ _____ _____    ______ ____
ROOT
ATOM      1  CA  GLY A   4      37.032   9.506  16.518  0.00  0.00    +0.176 C 
ENDROOT
BRANCH   1   4
ATOM      2  C   VAL A   3      39.122   9.367  17.786  0.00  0.00    +0.241 C 
ATOM      3  O   VAL A   3      39.508  10.484  17.420  0.00  0.00    -0.273 OA
ATOM      4  N   GLY A   4      37.989   8.808  17.362  0.00  0.00    -0.295 N 
ATOM      5  H   GLY A   4      37.780   7.830  17.647  0.00  0.00    +0.150 HD
BRANCH   2   6
ATOM      6  CA  VAL A   3      39.931   8.522  18.776  0.00  0.00    +0.149 C 
BRANCH   6   9
ATOM      7  C   GLY A   2      39.299   6.303  19.623  0.00  0.00    +0.243 C 
ATOM      8  O   GLY A   2      39.081   6.729  20.740  0.00  0.00    -0.273 OA
ATOM      9  N   VAL A   3      39.637   7.095  18.610  0.00  0.00    -0.297 N 
ATOM     10  H   VAL A   3      39.696   6.684  17.657  0.00  0.00    +0.150 HD
BRANCH   7  11
ATOM     11  CA  GLY A   2      39.139   4.806  19.334  0.00  0.00    +0.176 C 
BRANCH  11  14
ATOM     12  C   PHE A   1      41.013   4.175  17.895  0.00  0.00    +0.239 C 
ATOM     13  O   PHE A   1      41.842   4.551  18.727  0.00  0.00    -0.274 OA
ATOM     14  N   GLY A   2      39.697   4.300  18.077  0.00  0.00    -0.296 N 
ATOM     15  H   GLY A   2      39.051   4.032  17.307  0.00  0.00    +0.150 HD
BRANCH  12  16
ATOM     16  CA  PHE A   1      41.451   3.490  16.596  0.00  0.00    +0.149 C 
BRANCH  16  17
ATOM     17  N   PHE A   1      40.358   3.394  15.626  0.00  0.00    -0.238 NA
ATOM     18  H   PHE A   1      39.971   4.269  15.218  0.00  0.00    +0.142 HD
ENDBRANCH  16  17
BRANCH  16  19
ATOM     19  CB  PHE A   1      42.678   4.145  15.944  0.00  0.00    +0.053 C 
BRANCH  19  20
ATOM     20  CG  PHE A   1      43.003   3.573  14.573  0.00  0.00    -0.020 A 
ATOM     21  CD2 PHE A   1      43.747   2.390  14.455  0.00  0.00    -0.004 A 
ATOM     22  CE2 PHE A   1      44.029   1.831  13.192  0.00  0.00    -0.000 A 
ATOM     23  CZ  PHE A   1      43.558   2.475  12.028  0.00  0.00    -0.000 A 
ATOM     24  CE1 PHE A   1      42.814   3.658  12.139  0.00  0.00    -0.000 A 
ATOM     25  CD1 PHE A   1      42.530   4.189  13.414  0.00  0.00    -0.004 A 
ENDBRANCH  19  20
ENDBRANCH  16  19
ENDBRANCH  12  16
ENDBRANCH  11  14
ENDBRANCH   7  11
ENDBRANCH   6   9
BRANCH   6  26
ATOM     26  CB  VAL A   3      41.472   8.819  18.680  0.00  0.00    +0.027 C 
ATOM     27  CG2 VAL A   3      42.195   8.203  19.858  0.00  0.00    +0.002 C 
ATOM     28  CG1 VAL A   3      42.081   8.302  17.360  0.00  0.00    +0.002 C 
ENDBRANCH   6  26
ENDBRANCH   2   6
ENDBRANCH   1   4
BRANCH   1  29
ATOM     29  C   GLY A   4      36.614  10.878  17.031  0.00  0.00    +0.243 C 
ATOM     30  N   PHE A   5      36.533  11.058  18.353  0.00  0.00    -0.297 N 
ATOM     31  H   PHE A   5      36.646  10.250  18.998  0.00  0.00    +0.150 HD
ATOM     32  O   GLY A   4      36.359  11.774  16.244  0.00  0.00    -0.273 OA
BRANCH  30  33
ATOM     33  CA  PHE A   5      36.281  12.419  18.896  0.00  0.00    +0.153 C 
BRANCH  33  34
ATOM     34  C   PHE A   5      37.080  13.569  18.237  0.00  0.00    +0.241 C 
ATOM     35  N   TYR A   6      38.388  13.368  18.055  0.00  0.00    -0.298 N 
ATOM     36  H   TYR A   6      38.781  12.421  18.227  0.00  0.00    +0.150 HD
ATOM     37  O   PHE A   5      36.503  14.621  17.930  0.00  0.00    -0.273 OA
BRANCH  35  38
ATOM     38  CA  TYR A   6      39.285  14.439  17.621  0.00  0.00    +0.141 C 
BRANCH  38  39
ATOM     39  C   TYR A   6      39.005  14.908  16.178  0.00  0.00    +0.227 C 
ATOM     40  O   TYR A   6      39.418  15.992  15.805  0.00  0.00    -0.286 OA
ENDBRANCH  38  39
BRANCH  38  41
ATOM     41  CB  TYR A   6      40.772  14.055  17.882  0.00  0.00    +0.054 C 
BRANCH  41  42
ATOM     42  CG  TYR A   6      40.992  13.802  19.367  0.00  0.00    -0.020 A 
ATOM     43  CD2 TYR A   6      41.283  14.860  20.233  0.00  0.00    -0.001 A 
ATOM     44  CE2 TYR A   6      41.424  14.643  21.598  0.00  0.00    +0.036 A 
ATOM     45  CZ  TYR A   6      41.308  13.348  22.108  0.00  0.00    +0.134 A 
ATOM     46  CE1 TYR A   6      41.011  12.285  21.272  0.00  0.00    +0.036 A 
ATOM     47  CD1 TYR A   6      40.843  12.512  19.916  0.00  0.00    -0.001 A 
BRANCH  45  48
ATOM     48  OH  TYR A   6      41.458  13.119  23.458  0.00  0.00    -0.506 OA
ATOM     49  HH  TYR A   6      41.666  13.972  23.915  0.00  0.00    +0.292 HD
ENDBRANCH  45  48
ENDBRANCH  41  42
ENDBRANCH  38  41
ENDBRANCH  35  38
ENDBRANCH  33  34
BRANCH  33  50
ATOM     50  CB  PHE A   5      36.474  12.488  20.425  0.00  0.00    +0.055 C 
BRANCH  50  51
ATOM     51  CG  PHE A   5      36.409  13.882  20.968  0.00  0.00    -0.020 A 
ATOM     52  CD2 PHE A   5      37.584  14.533  21.419  0.00  0.00    -0.004 A 
ATOM     53  CE2 PHE A   5      37.535  15.856  21.939  0.00  0.00    -0.000 A 
ATOM     54  CZ  PHE A   5      36.306  16.538  21.977  0.00  0.00    -0.000 A 
ATOM     55  CE1 PHE A   5      35.117  15.897  21.499  0.00  0.00    -0.000 A 
ATOM     56  CD1 PHE A   5      35.192  14.574  20.989  0.00  0.00    -0.004 A 
ENDBRANCH  50  51
ENDBRANCH  33  50
ENDBRANCH  30  33
ENDBRANCH   1  29
TORSDOF 20
REMARK  Name = ../refined-set-2016/2uwd/2uwd_pocket.pdb
REMARK  226 active torsions:
REMARK  status: ('A' for Active; 'I' for Inactive)
REMARK    1  A    between atoms: _1  and  _3
REMARK    2  A    between atoms: _3  and  _4
REMARK    3  A    between atoms: _3  and  _6
REMARK    4  A    between atoms: _6  and  _7
REMARK    5  A    between atoms: _13  and  _15
REMARK    6  A    between atoms: _15  and  _16
REMARK    7  A    between atoms: _15  and  _18
REMARK    8  A    between atoms: _18  and  _19
REMARK    9  A    between atoms: _22  and  _24
REMARK   10  A    between atoms: _24  and  _25
REMARK   11  A    between atoms: _24  and  _27
REMARK   12  A    between atoms: _27  and  _28
REMARK   13  A    between atoms: _28  and  _29
REMARK   14  A    between atoms: _32  and  _34
REMARK   15  A    between atoms: _34  and  _35
REMARK   16  A    between atoms: _34  and  _37
REMARK   17  A    between atoms: _37  and  _38
REMARK   18  A    between atoms: _41  and  _43
REMARK   19  A    between atoms: _43  and  _44
REMARK   20  A    between atoms: _43  and  _46
REMARK   21  A    between atoms: _46  and  _47
REMARK   22  A    between atoms: _50  and  _52
REMARK   23  A    between atoms: _52  and  _53
REMARK   24  A    between atoms: _52  and  _55
REMARK   25  A    between atoms: _55  and  _56
REMARK   26  A    between atoms: _58  and  _60
REMARK   27  A    between atoms: _60  and  _61
REMARK   28  A    between atoms: _60  and  _63
REMARK   29  A    between atoms: _63  and  _64
REMARK   30  A    between atoms: _69  and  _71
REMARK   31  A    between atoms: _71  and  _72
REMARK   32  A    between atoms: _71  and  _74
REMARK   33  A    between atoms: _74  and  _75
REMARK   34  A    between atoms: _77  and  _79
REMARK   35  A    between atoms: _79  and  _80
REMARK   36  A    between atoms: _79  and  _82
REMARK   37  A    between atoms: _82  and  _83
REMARK   38  A    between atoms: _85  and  _87
REMARK   39  A    between atoms: _87  and  _88
REMARK   40  A    between atoms: _87  and  _90
REMARK   41  A    between atoms: _90  and  _91
REMARK   42  A    between atoms: _94  and  _96
REMARK   43  A    between atoms: _96  and  _97
REMARK   44  A    between atoms: _100  and  _102
REMARK   45  A    between atoms: _102  and  _103
REMARK   46  A    between atoms: _102  and  _105
REMARK   47  A    between atoms: _105  and  _106
REMARK   48  A    between atoms: _109  and  _111
REMARK   49  A    between atoms: _111  and  _112
REMARK   50  A    between atoms: _111  and  _114
REMARK   51  A    between atoms: _114  and  _115
REMARK   52  A    between atoms: _118  and  _120
REMARK   53  A    between atoms: _120  and  _121
REMARK   54  A    between atoms: _120  and  _123
REMARK   55  A    between atoms: _123  and  _124
REMARK   56  A    between atoms: _124  and  _125
REMARK   57  A    between atoms: _125  and  _126
REMARK   58  A    between atoms: _126  and  _127
REMARK   59  A    between atoms: _131  and  _133
REMARK   60  A    between atoms: _133  and  _134
REMARK   61  A    between atoms: _133  and  _136
REMARK   62  A    between atoms: _136  and  _137
REMARK   63  A    between atoms: _140  and  _142
REMARK   64  A    between atoms: _142  and  _143
REMARK   65  A    between atoms: _142  and  _145
REMARK   66  A    between atoms: _145  and  _146
REMARK   67  A    between atoms: _146  and  _147
REMARK   68  A    between atoms: _150  and  _152
REMARK   69  A    between atoms: _152  and  _153
REMARK   70  A    between atoms: _152  and  _155
REMARK   71  A    between atoms: _155  and  _156
REMARK   72  A    between atoms: _159  and  _161
REMARK   73  A    between atoms: _161  and  _162
REMARK   74  A    between atoms: _161  and  _164
REMARK   75  A    between atoms: _164  and  _165
REMARK   76  A    between atoms: _168  and  _170
REMARK   77  A    between atoms: _170  and  _171
REMARK   78  A    between atoms: _170  and  _173
REMARK   79  A    between atoms: _176  and  _178
REMARK   80  A    between atoms: _178  and  _179
REMARK   81  A    between atoms: _178  and  _181
REMARK   82  A    between atoms: _181  and  _182
REMARK   83  A    between atoms: _185  and  _187
REMARK   84  A    between atoms: _187  and  _188
REMARK   85  A    between atoms: _187  and  _190
REMARK   86  A    between atoms: _190  and  _191
REMARK   87  A    between atoms: _194  and  _196
REMARK   88  A    between atoms: _196  and  _197
REMARK   89  A    between atoms: _199  and  _201
REMARK   90  A    between atoms: _201  and  _202
REMARK   91  A    between atoms: _201  and  _204
REMARK   92  A    between atoms: _204  and  _205
REMARK   93  A    between atoms: _208  and  _210
REMARK   94  A    between atoms: _210  and  _211
REMARK   95  A    between atoms: _213  and  _215
REMARK   96  A    between atoms: _215  and  _216
REMARK   97  A    between atoms: _215  and  _218
REMARK   98  A    between atoms: _218  and  _219
REMARK   99  A    between atoms: _219  and  _220
REMARK  100  A    between atoms: _222  and  _224
REMARK  101  A    between atoms: _224  and  _225
REMARK  102  A    between atoms: _224  and  _227
REMARK  103  A    between atoms: _227  and  _228
REMARK  104  A    between atoms: _231  and  _233
REMARK  105  A    between atoms: _233  and  _234
REMARK  106  A    between atoms: _237  and  _239
REMARK  107  A    between atoms: _239  and  _240
REMARK  108  A    between atoms: _239  and  _242
REMARK  109  A    between atoms: _242  and  _243
REMARK  110  A    between atoms: _246  and  _248
REMARK  111  A    between atoms: _248  and  _249
REMARK  112  A    between atoms: _248  and  _251
REMARK  113  A    between atoms: _251  and  _252
REMARK  114  A    between atoms: _255  and  _257
REMARK  115  A    between atoms: _257  and  _258
REMARK  116  A    between atoms: _257  and  _260
REMARK  117  A    between atoms: _260  and  _261
REMARK  118  A    between atoms: _266  and  _268
REMARK  119  A    between atoms: _268  and  _269
REMARK  120  A    between atoms: _268  and  _271
REMARK  121  A    between atoms: _271  and  _272
REMARK  122  A    between atoms: _277  and  _279
REMARK  123  A    between atoms: _279  and  _280
REMARK  124  A    between atoms: _279  and  _282
REMARK  125  A    between atoms: _282  and  _283
REMARK  126  A    between atoms: _286  and  _288
REMARK  127  A    between atoms: _288  and  _289
REMARK  128  A    between atoms: _291  and  _293
REMARK  129  A    between atoms: _293  and  _294
REMARK  130  A    between atoms: _293  and  _296
REMARK  131  A    between atoms: _296  and  _297
REMARK  132  A    between atoms: _300  and  _302
REMARK  133  A    between atoms: _302  and  _303
REMARK  134  A    between atoms: _302  and  _305
REMARK  135  A    between atoms: _305  and  _306
REMARK  136  A    between atoms: _309  and  _311
REMARK  137  A    between atoms: _311  and  _312
REMARK  138  A    between atoms: _315  and  _317
REMARK  139  A    between atoms: _317  and  _318
REMARK  140  A    between atoms: _320  and  _322
REMARK  141  A    between atoms: _322  and  _323
REMARK  142  A    between atoms: _322  and  _325
REMARK  143  A    between atoms: _325  and  _326
REMARK  144  A    between atoms: _332  and  _334
REMARK  145  A    between atoms: _334  and  _335
REMARK  146  A    between atoms: _337  and  _339
REMARK  147  A    between atoms: _339  and  _340
REMARK  148  A    between atoms: _339  and  _342
REMARK  149  A    between atoms: _345  and  _347
REMARK  150  A    between atoms: _347  and  _348
REMARK  151  A    between atoms: _350  and  _352
REMARK  152  A    between atoms: _352  and  _353
REMARK  153  A    between atoms: _352  and  _355
REMARK  154  A    between atoms: _355  and  _356
REMARK  155  A    between atoms: _362  and  _364
REMARK  156  A    between atoms: _364  and  _365
REMARK  157  A    between atoms: _364  and  _367
REMARK  158  A    between atoms: _367  and  _368
REMARK  159  A    between atoms: _373  and  _374
REMARK  160  A    between atoms: _376  and  _378
REMARK  161  A    between atoms: _378  and  _379
REMARK  162  A    between atoms: _382  and  _384
REMARK  163  A    between atoms: _384  and  _385
REMARK  164  A    between atoms: _384  and  _387
REMARK  165  A    between atoms: _390  and  _392
REMARK  166  A    between atoms: _392  and  _393
REMARK  167  A    between atoms: _392  and  _395
REMARK  168  A    between atoms: _398  and  _400
REMARK  169  A    between atoms: _400  and  _401
REMARK  170  A    between atoms: _400  and  _403
REMARK  171  A    between atoms: _403  and  _404
REMARK  172  A    between atoms: _407  and  _409
REMARK  173  A    between atoms: _409  and  _410
REMARK  174  A    between atoms: _409  and  _412
REMARK  175  A    between atoms: _412  and  _413
REMARK  176  A    between atoms: _416  and  _418
REMARK  177  A    between atoms: _418  and  _419
REMARK  178  A    between atoms: _418  and  _421
REMARK  179  A    between atoms: _421  and  _422
REMARK  180  A    between atoms: _422  and  _423
REMARK  181  A    between atoms: _423  and  _424
REMARK  182  A    between atoms: _424  and  _425
REMARK  183  A    between atoms: _429  and  _431
REMARK  184  A    between atoms: _431  and  _432
REMARK  185  A    between atoms: _431  and  _434
REMARK  186  A    between atoms: _434  and  _435
REMARK  187  A    between atoms: _440  and  _442
REMARK  188  A    between atoms: _442  and  _443
REMARK  189  A    between atoms: _445  and  _447
REMARK  190  A    between atoms: _447  and  _448
REMARK  191  A    between atoms: _447  and  _450
REMARK  192  A    between atoms: _450  and  _451
REMARK  193  A    between atoms: _454  and  _456
REMARK  194  A    between atoms: _456  and  _457
REMARK  195  A    between atoms: _456  and  _459
REMARK  196  A    between atoms: _459  and  _460
REMARK  197  A    between atoms: _460  and  _461
REMARK  198  A    between atoms: _461  and  _462
REMARK  199  A    between atoms: _462  and  _463
REMARK  200  A    between atoms: _467  and  _469
REMARK  201  A    between atoms: _469  and  _470
REMARK  202  A    between atoms: _469  and  _472
REMARK  203  A    between atoms: _475  and  _477
REMARK  204  A    between atoms: _477  and  _478
REMARK  205  A    between atoms: _477  and  _480
REMARK  206  A    between atoms: _480  and  _481
REMARK  207  A    between atoms: _484  and  _486
REMARK  208  A    between atoms: _486  and  _487
REMARK  209  A    between atoms: _486  and  _489
REMARK  210  A    between atoms: _489  and  _490
REMARK  211  A    between atoms: _493  and  _495
REMARK  212  A    between atoms: _495  and  _496
REMARK  213  A    between atoms: _495  and  _498
REMARK  214  A    between atoms: _498  and  _499
REMARK  215  A    between atoms: _502  and  _504
REMARK  216  A    between atoms: _504  and  _505
REMARK  217  A    between atoms: _504  and  _507
REMARK  218  A    between atoms: _507  and  _508
REMARK  219  A    between atoms: _508  and  _509
REMARK  220  A    between atoms: _509  and  _510
REMARK  221  A    between atoms: _510  and  _511
REMARK  222  A    between atoms: _515  and  _517
REMARK  223  A    between atoms: _517  and  _518
REMARK  224  A    between atoms: _517  and  _520
REMARK  225  A    between atoms: _520  and  _521
REMARK  226  A    between atoms: _526  and  _527
REMARK                            x       y       z     vdW  Elec       q    Type
REMARK                         _______ _______ _______ _____ _____    ______ ____
ROOT
ATOM      1  CA  ALA A   1      35.649  17.269  15.524  0.00  0.00    +0.133 C 
ATOM      2  CB  ALA A   1      35.267  17.437  17.024  0.00  0.00    +0.027 C 
ENDROOT
BRANCH   1   3
ATOM      3  N   ALA A   1      36.399  16.030  15.310  0.00  0.00    -0.239 NA
ATOM      4  H   ALA A   1      36.575  15.401  16.119  0.00  0.00    +0.142 HD
ENDBRANCH   1   3
BRANCH   1   5
ATOM      5  C   ALA A   1      36.449  18.481  15.027  0.00  0.00    +0.224 C 
ATOM      6  O   ALA A   1      35.879  19.409  14.440  0.00  0.00    -0.287 OA
ENDBRANCH   1   5
TORSDOF 2
REMARK  Name = ../refined-set-2016/2uwd/2uwd_pocket.pdb
REMARK  226 active torsions:
REMARK  status: ('A' for Active; 'I' for Inactive)
REMARK    1  A    between atoms: _1  and  _3
REMARK    2  A    between atoms: _3  and  _4
REMARK    3  A    between atoms: _3  and  _6
REMARK    4  A    between atoms: _6  and  _7
REMARK    5  A    between atoms: _13  and  _15
REMARK    6  A    between atoms: _15  and  _16
REMARK    7  A    between atoms: _15  and  _18
REMARK    8  A    between atoms: _18  and  _19
REMARK    9  A    between atoms: _22  and  _24
REMARK   10  A    between atoms: _24  and  _25
REMARK   11  A    between atoms: _24  and  _27
REMARK   12  A    between atoms: _27  and  _28
REMARK   13  A    between atoms: _28  and  _29
REMARK   14  A    between atoms: _32  and  _34
REMARK   15  A    between atoms: _34  and  _35
REMARK   16  A    between atoms: _34  and  _37
REMARK   17  A    between atoms: _37  and  _38
REMARK   18  A    between atoms: _41  and  _43
REMARK   19  A    between atoms: _43  and  _44
REMARK   20  A    between atoms: _43  and  _46
REMARK   21  A    between atoms: _46  and  _47
REMARK   22  A    between atoms: _50  and  _52
REMARK   23  A    between atoms: _52  and  _53
REMARK   24  A    between atoms: _52  and  _55
REMARK   25  A    between atoms: _55  and  _56
REMARK   26  A    between atoms: _58  and  _60
REMARK   27  A    between atoms: _60  and  _61
REMARK   28  A    between atoms: _60  and  _63
REMARK   29  A    between atoms: _63  and  _64
REMARK   30  A    between atoms: _69  and  _71
REMARK   31  A    between atoms: _71  and  _72
REMARK   32  A    between atoms: _71  and  _74
REMARK   33  A    between atoms: _74  and  _75
REMARK   34  A    between atoms: _77  and  _79
REMARK   35  A    between atoms: _79  and  _80
REMARK   36  A    between atoms: _79  and  _82
REMARK   37  A    between atoms: _82  and  _83
REMARK   38  A    between atoms: _85  and  _87
REMARK   39  A    between atoms: _87  and  _88
REMARK   40  A    between atoms: _87  and  _90
REMARK   41  A    between atoms: _90  and  _91
REMARK   42  A    between atoms: _94  and  _96
REMARK   43  A    between atoms: _96  and  _97
REMARK   44  A    between atoms: _100  and  _102
REMARK   45  A    between atoms: _102  and  _103
REMARK   46  A    between atoms: _102  and  _105
REMARK   47  A    between atoms: _105  and  _106
REMARK   48  A    between atoms: _109  and  _111
REMARK   49  A    between atoms: _111  and  _112
REMARK   50  A    between atoms: _111  and  _114
REMARK   51  A    between atoms: _114  and  _115
REMARK   52  A    between atoms: _118  and  _120
REMARK   53  A    between atoms: _120  and  _121
REMARK   54  A    between atoms: _120  and  _123
REMARK   55  A    between atoms: _123  and  _124
REMARK   56  A    between atoms: _124  and  _125
REMARK   57  A    between atoms: _125  and  _126
REMARK   58  A    between atoms: _126  and  _127
REMARK   59  A    between atoms: _131  and  _133
REMARK   60  A    between atoms: _133  and  _134
REMARK   61  A    between atoms: _133  and  _136
REMARK   62  A    between atoms: _136  and  _137
REMARK   63  A    between atoms: _140  and  _142
REMARK   64  A    between atoms: _142  and  _143
REMARK   65  A    between atoms: _142  and  _145
REMARK   66  A    between atoms: _145  and  _146
REMARK   67  A    between atoms: _146  and  _147
REMARK   68  A    between atoms: _150  and  _152
REMARK   69  A    between atoms: _152  and  _153
REMARK   70  A    between atoms: _152  and  _155
REMARK   71  A    between atoms: _155  and  _156
REMARK   72  A    between atoms: _159  and  _161
REMARK   73  A    between atoms: _161  and  _162
REMARK   74  A    between atoms: _161  and  _164
REMARK   75  A    between atoms: _164  and  _165
REMARK   76  A    between atoms: _168  and  _170
REMARK   77  A    between atoms: _170  and  _171
REMARK   78  A    between atoms: _170  and  _173
REMARK   79  A    between atoms: _176  and  _178
REMARK   80  A    between atoms: _178  and  _179
REMARK   81  A    between atoms: _178  and  _181
REMARK   82  A    between atoms: _181  and  _182
REMARK   83  A    between atoms: _185  and  _187
REMARK   84  A    between atoms: _187  and  _188
REMARK   85  A    between atoms: _187  and  _190
REMARK   86  A    between atoms: _190  and  _191
REMARK   87  A    between atoms: _194  and  _196
REMARK   88  A    between atoms: _196  and  _197
REMARK   89  A    between atoms: _199  and  _201
REMARK   90  A    between atoms: _201  and  _202
REMARK   91  A    between atoms: _201  and  _204
REMARK   92  A    between atoms: _204  and  _205
REMARK   93  A    between atoms: _208  and  _210
REMARK   94  A    between atoms: _210  and  _211
REMARK   95  A    between atoms: _213  and  _215
REMARK   96  A    between atoms: _215  and  _216
REMARK   97  A    between atoms: _215  and  _218
REMARK   98  A    between atoms: _218  and  _219
REMARK   99  A    between atoms: _219  and  _220
REMARK  100  A    between atoms: _222  and  _224
REMARK  101  A    between atoms: _224  and  _225
REMARK  102  A    between atoms: _224  and  _227
REMARK  103  A    between atoms: _227  and  _228
REMARK  104  A    between atoms: _231  and  _233
REMARK  105  A    between atoms: _233  and  _234
REMARK  106  A    between atoms: _237  and  _239
REMARK  107  A    between atoms: _239  and  _240
REMARK  108  A    between atoms: _239  and  _242
REMARK  109  A    between atoms: _242  and  _243
REMARK  110  A    between atoms: _246  and  _248
REMARK  111  A    between atoms: _248  and  _249
REMARK  112  A    between atoms: _248  and  _251
REMARK  113  A    between atoms: _251  and  _252
REMARK  114  A    between atoms: _255  and  _257
REMARK  115  A    between atoms: _257  and  _258
REMARK  116  A    between atoms: _257  and  _260
REMARK  117  A    between atoms: _260  and  _261
REMARK  118  A    between atoms: _266  and  _268
REMARK  119  A    between atoms: _268  and  _269
REMARK  120  A    between atoms: _268  and  _271
REMARK  121  A    between atoms: _271  and  _272
REMARK  122  A    between atoms: _277  and  _279
REMARK  123  A    between atoms: _279  and  _280
REMARK  124  A    between atoms: _279  and  _282
REMARK  125  A    between atoms: _282  and  _283
REMARK  126  A    between atoms: _286  and  _288
REMARK  127  A    between atoms: _288  and  _289
REMARK  128  A    between atoms: _291  and  _293
REMARK  129  A    between atoms: _293  and  _294
REMARK  130  A    between atoms: _293  and  _296
REMARK  131  A    between atoms: _296  and  _297
REMARK  132  A    between atoms: _300  and  _302
REMARK  133  A    between atoms: _302  and  _303
REMARK  134  A    between atoms: _302  and  _305
REMARK  135  A    between atoms: _305  and  _306
REMARK  136  A    between atoms: _309  and  _311
REMARK  137  A    between atoms: _311  and  _312
REMARK  138  A    between atoms: _315  and  _317
REMARK  139  A    between atoms: _317  and  _318
REMARK  140  A    between atoms: _320  and  _322
REMARK  141  A    between atoms: _322  and  _323
REMARK  142  A    between atoms: _322  and  _325
REMARK  143  A    between atoms: _325  and  _326
REMARK  144  A    between atoms: _332  and  _334
REMARK  145  A    between atoms: _334  and  _335
REMARK  146  A    between atoms: _337  and  _339
REMARK  147  A    between atoms: _339  and  _340
REMARK  148  A    between atoms: _339  and  _342
REMARK  149  A    between atoms: _345  and  _347
REMARK  150  A    between atoms: _347  and  _348
REMARK  151  A    between atoms: _350  and  _352
REMARK  152  A    between atoms: _352  and  _353
REMARK  153  A    between atoms: _352  and  _355
REMARK  154  A    between atoms: _355  and  _356
REMARK  155  A    between atoms: _362  and  _364
REMARK  156  A    between atoms: _364  and  _365
REMARK  157  A    between atoms: _364  and  _367
REMARK  158  A    between atoms: _367  and  _368
REMARK  159  A    between atoms: _373  and  _374
REMARK  160  A    between atoms: _376  and  _378
REMARK  161  A    between atoms: _378  and  _379
REMARK  162  A    between atoms: _382  and  _384
REMARK  163  A    between atoms: _384  and  _385
REMARK  164  A    between atoms: _384  and  _387
REMARK  165  A    between atoms: _390  and  _392
REMARK  166  A    between atoms: _392  and  _393
REMARK  167  A    between atoms: _392  and  _395
REMARK  168  A    between atoms: _398  and  _400
REMARK  169  A    between atoms: _400  and  _401
REMARK  170  A    between atoms: _400  and  _403
REMARK  171  A    between atoms: _403  and  _404
REMARK  172  A    between atoms: _407  and  _409
REMARK  173  A    between atoms: _409  and  _410
REMARK  174  A    between atoms: _409  and  _412
REMARK  175  A    between atoms: _412  and  _413
REMARK  176  A    between atoms: _416  and  _418
REMARK  177  A    between atoms: _418  and  _419
REMARK  178  A    between atoms: _418  and  _421
REMARK  179  A    between atoms: _421  and  _422
REMARK  180  A    between atoms: _422  and  _423
REMARK  181  A    between atoms: _423  and  _424
REMARK  182  A    between atoms: _424  and  _425
REMARK  183  A    between atoms: _429  and  _431
REMARK  184  A    between atoms: _431  and  _432
REMARK  185  A    between atoms: _431  and  _434
REMARK  186  A    between atoms: _434  and  _435
REMARK  187  A    between atoms: _440  and  _442
REMARK  188  A    between atoms: _442  and  _443
REMARK  189  A    between atoms: _445  and  _447
REMARK  190  A    between atoms: _447  and  _448
REMARK  191  A    between atoms: _447  and  _450
REMARK  192  A    between atoms: _450  and  _451
REMARK  193  A    between atoms: _454  and  _456
REMARK  194  A    between atoms: _456  and  _457
REMARK  195  A    between atoms: _456  and  _459
REMARK  196  A    between atoms: _459  and  _460
REMARK  197  A    between atoms: _460  and  _461
REMARK  198  A    between atoms: _461  and  _462
REMARK  199  A    between atoms: _462  and  _463
REMARK  200  A    between atoms: _467  and  _469
REMARK  201  A    between atoms: _469  and  _470
REMARK  202  A    between atoms: _469  and  _472
REMARK  203  A    between atoms: _475  and  _477
REMARK  204  A    between atoms: _477  and  _478
REMARK  205  A    between atoms: _477  and  _480
REMARK  206  A    between atoms: _480  and  _481
REMARK  207  A    between atoms: _484  and  _486
REMARK  208  A    between atoms: _486  and  _487
REMARK  209  A    between atoms: _486  and  _489
REMARK  210  A    between atoms: _489  and  _490
REMARK  211  A    between atoms: _493  and  _495
REMARK  212  A    between atoms: _495  and  _496
REMARK  213  A    between atoms: _495  and  _498
REMARK  214  A    between atoms: _498  and  _499
REMARK  215  A    between atoms: _502  and  _504
REMARK  216  A    between atoms: _504  and  _505
REMARK  217  A    between atoms: _504  and  _507
REMARK  218  A    between atoms: _507  and  _508
REMARK  219  A    between atoms: _508  and  _509
REMARK  220  A    between atoms: _509  and  _510
REMARK  221  A    between atoms: _510  and  _511
REMARK  222  A    between atoms: _515  and  _517
REMARK  223  A    between atoms: _517  and  _518
REMARK  224  A    between atoms: _517  and  _520
REMARK  225  A    between atoms: _520  and  _521
REMARK  226  A    between atoms: _526  and  _527
REMARK                            x       y       z     vdW  Elec       q    Type
REMARK                         _______ _______ _______ _____ _____    ______ ____
ROOT
ATOM      1  CA  VAL A   1      34.914  22.285  20.975  0.00  0.00    +0.133 C 
ENDROOT
BRANCH   1   2
ATOM      2  CB  VAL A   1      35.339  20.858  20.526  0.00  0.00    +0.023 C 
ATOM      3  CG2 VAL A   1      34.347  19.812  21.036  0.00  0.00    +0.002 C 
ATOM      4  CG1 VAL A   1      35.457  20.756  18.955  0.00  0.00    +0.002 C 
ENDBRANCH   1   2
BRANCH   1   5
ATOM      5  N   VAL A   1      35.877  23.290  20.570  0.00  0.00    -0.239 NA
ATOM      6  H   VAL A   1      36.821  23.285  21.006  0.00  0.00    +0.142 HD
ENDBRANCH   1   5
BRANCH   1   7
ATOM      7  C   VAL A   1      34.755  22.351  22.512  0.00  0.00    +0.224 C 
ATOM      8  O   VAL A   1      35.758  22.404  23.267  0.00  0.00    -0.287 OA
ENDBRANCH   1   7
TORSDOF 3
REMARK  Name = ../refined-set-2016/2uwd/2uwd_pocket.pdb
REMARK  226 active torsions:
REMARK  status: ('A' for Active; 'I' for Inactive)
REMARK    1  A    between atoms: _1  and  _3
REMARK    2  A    between atoms: _3  and  _4
REMARK    3  A    between atoms: _3  and  _6
REMARK    4  A    between atoms: _6  and  _7
REMARK    5  A    between atoms: _13  and  _15
REMARK    6  A    between atoms: _15  and  _16
REMARK    7  A    between atoms: _15  and  _18
REMARK    8  A    between atoms: _18  and  _19
REMARK    9  A    between atoms: _22  and  _24
REMARK   10  A    between atoms: _24  and  _25
REMARK   11  A    between atoms: _24  and  _27
REMARK   12  A    between atoms: _27  and  _28
REMARK   13  A    between atoms: _28  and  _29
REMARK   14  A    between atoms: _32  and  _34
REMARK   15  A    between atoms: _34  and  _35
REMARK   16  A    between atoms: _34  and  _37
REMARK   17  A    between atoms: _37  and  _38
REMARK   18  A    between atoms: _41  and  _43
REMARK   19  A    between atoms: _43  and  _44
REMARK   20  A    between atoms: _43  and  _46
REMARK   21  A    between atoms: _46  and  _47
REMARK   22  A    between atoms: _50  and  _52
REMARK   23  A    between atoms: _52  and  _53
REMARK   24  A    between atoms: _52  and  _55
REMARK   25  A    between atoms: _55  and  _56
REMARK   26  A    between atoms: _58  and  _60
REMARK   27  A    between atoms: _60  and  _61
REMARK   28  A    between atoms: _60  and  _63
REMARK   29  A    between atoms: _63  and  _64
REMARK   30  A    between atoms: _69  and  _71
REMARK   31  A    between atoms: _71  and  _72
REMARK   32  A    between atoms: _71  and  _74
REMARK   33  A    between atoms: _74  and  _75
REMARK   34  A    between atoms: _77  and  _79
REMARK   35  A    between atoms: _79  and  _80
REMARK   36  A    between atoms: _79  and  _82
REMARK   37  A    between atoms: _82  and  _83
REMARK   38  A    between atoms: _85  and  _87
REMARK   39  A    between atoms: _87  and  _88
REMARK   40  A    between atoms: _87  and  _90
REMARK   41  A    between atoms: _90  and  _91
REMARK   42  A    between atoms: _94  and  _96
REMARK   43  A    between atoms: _96  and  _97
REMARK   44  A    between atoms: _100  and  _102
REMARK   45  A    between atoms: _102  and  _103
REMARK   46  A    between atoms: _102  and  _105
REMARK   47  A    between atoms: _105  and  _106
REMARK   48  A    between atoms: _109  and  _111
REMARK   49  A    between atoms: _111  and  _112
REMARK   50  A    between atoms: _111  and  _114
REMARK   51  A    between atoms: _114  and  _115
REMARK   52  A    between atoms: _118  and  _120
REMARK   53  A    between atoms: _120  and  _121
REMARK   54  A    between atoms: _120  and  _123
REMARK   55  A    between atoms: _123  and  _124
REMARK   56  A    between atoms: _124  and  _125
REMARK   57  A    between atoms: _125  and  _126
REMARK   58  A    between atoms: _126  and  _127
REMARK   59  A    between atoms: _131  and  _133
REMARK   60  A    between atoms: _133  and  _134
REMARK   61  A    between atoms: _133  and  _136
REMARK   62  A    between atoms: _136  and  _137
REMARK   63  A    between atoms: _140  and  _142
REMARK   64  A    between atoms: _142  and  _143
REMARK   65  A    between atoms: _142  and  _145
REMARK   66  A    between atoms: _145  and  _146
REMARK   67  A    between atoms: _146  and  _147
REMARK   68  A    between atoms: _150  and  _152
REMARK   69  A    between atoms: _152  and  _153
REMARK   70  A    between atoms: _152  and  _155
REMARK   71  A    between atoms: _155  and  _156
REMARK   72  A    between atoms: _159  and  _161
REMARK   73  A    between atoms: _161  and  _162
REMARK   74  A    between atoms: _161  and  _164
REMARK   75  A    between atoms: _164  and  _165
REMARK   76  A    between atoms: _168  and  _170
REMARK   77  A    between atoms: _170  and  _171
REMARK   78  A    between atoms: _170  and  _173
REMARK   79  A    between atoms: _176  and  _178
REMARK   80  A    between atoms: _178  and  _179
REMARK   81  A    between atoms: _178  and  _181
REMARK   82  A    between atoms: _181  and  _182
REMARK   83  A    between atoms: _185  and  _187
REMARK   84  A    between atoms: _187  and  _188
REMARK   85  A    between atoms: _187  and  _190
REMARK   86  A    between atoms: _190  and  _191
REMARK   87  A    between atoms: _194  and  _196
REMARK   88  A    between atoms: _196  and  _197
REMARK   89  A    between atoms: _199  and  _201
REMARK   90  A    between atoms: _201  and  _202
REMARK   91  A    between atoms: _201  and  _204
REMARK   92  A    between atoms: _204  and  _205
REMARK   93  A    between atoms: _208  and  _210
REMARK   94  A    between atoms: _210  and  _211
REMARK   95  A    between atoms: _213  and  _215
REMARK   96  A    between atoms: _215  and  _216
REMARK   97  A    between atoms: _215  and  _218
REMARK   98  A    between atoms: _218  and  _219
REMARK   99  A    between atoms: _219  and  _220
REMARK  100  A    between atoms: _222  and  _224
REMARK  101  A    between atoms: _224  and  _225
REMARK  102  A    between atoms: _224  and  _227
REMARK  103  A    between atoms: _227  and  _228
REMARK  104  A    between atoms: _231  and  _233
REMARK  105  A    between atoms: _233  and  _234
REMARK  106  A    between atoms: _237  and  _239
REMARK  107  A    between atoms: _239  and  _240
REMARK  108  A    between atoms: _239  and  _242
REMARK  109  A    between atoms: _242  and  _243
REMARK  110  A    between atoms: _246  and  _248
REMARK  111  A    between atoms: _248  and  _249
REMARK  112  A    between atoms: _248  and  _251
REMARK  113  A    between atoms: _251  and  _252
REMARK  114  A    between atoms: _255  and  _257
REMARK  115  A    between atoms: _257  and  _258
REMARK  116  A    between atoms: _257  and  _260
REMARK  117  A    between atoms: _260  and  _261
REMARK  118  A    between atoms: _266  and  _268
REMARK  119  A    between atoms: _268  and  _269
REMARK  120  A    between atoms: _268  and  _271
REMARK  121  A    between atoms: _271  and  _272
REMARK  122  A    between atoms: _277  and  _279
REMARK  123  A    between atoms: _279  and  _280
REMARK  124  A    between atoms: _279  and  _282
REMARK  125  A    between atoms: _282  and  _283
REMARK  126  A    between atoms: _286  and  _288
REMARK  127  A    between atoms: _288  and  _289
REMARK  128  A    between atoms: _291  and  _293
REMARK  129  A    between atoms: _293  and  _294
REMARK  130  A    between atoms: _293  and  _296
REMARK  131  A    between atoms: _296  and  _297
REMARK  132  A    between atoms: _300  and  _302
REMARK  133  A    between atoms: _302  and  _303
REMARK  134  A    between atoms: _302  and  _305
REMARK  135  A    between atoms: _305  and  _306
REMARK  136  A    between atoms: _309  and  _311
REMARK  137  A    between atoms: _311  and  _312
REMARK  138  A    between atoms: _315  and  _317
REMARK  139  A    between atoms: _317  and  _318
REMARK  140  A    between atoms: _320  and  _322
REMARK  141  A    between atoms: _322  and  _323
REMARK  142  A    between atoms: _322  and  _325
REMARK  143  A    between atoms: _325  and  _326
REMARK  144  A    between atoms: _332  and  _334
REMARK  145  A    between atoms: _334  and  _335
REMARK  146  A    between atoms: _337  and  _339
REMARK  147  A    between atoms: _339  and  _340
REMARK  148  A    between atoms: _339  and  _342
REMARK  149  A    between atoms: _345  and  _347
REMARK  150  A    between atoms: _347  and  _348
REMARK  151  A    between atoms: _350  and  _352
REMARK  152  A    between atoms: _352  and  _353
REMARK  153  A    between atoms: _352  and  _355
REMARK  154  A    between atoms: _355  and  _356
REMARK  155  A    between atoms: _362  and  _364
REMARK  156  A    between atoms: _364  and  _365
REMARK  157  A    between atoms: _364  and  _367
REMARK  158  A    between atoms: _367  and  _368
REMARK  159  A    between atoms: _373  and  _374
REMARK  160  A    between atoms: _376  and  _378
REMARK  161  A    between atoms: _378  and  _379
REMARK  162  A    between atoms: _382  and  _384
REMARK  163  A    between atoms: _384  and  _385
REMARK  164  A    between atoms: _384  and  _387
REMARK  165  A    between atoms: _390  and  _392
REMARK  166  A    between atoms: _392  and  _393
REMARK  167  A    between atoms: _392  and  _395
REMARK  168  A    between atoms: _398  and  _400
REMARK  169  A    between atoms: _400  and  _401
REMARK  170  A    between atoms: _400  and  _403
REMARK  171  A    between atoms: _403  and  _404
REMARK  172  A    between atoms: _407  and  _409
REMARK  173  A    between atoms: _409  and  _410
REMARK  174  A    between atoms: _409  and  _412
REMARK  175  A    between atoms: _412  and  _413
REMARK  176  A    between atoms: _416  and  _418
REMARK  177  A    between atoms: _418  and  _419
REMARK  178  A    between atoms: _418  and  _421
REMARK  179  A    between atoms: _421  and  _422
REMARK  180  A    between atoms: _422  and  _423
REMARK  181  A    between atoms: _423  and  _424
REMARK  182  A    between atoms: _424  and  _425
REMARK  183  A    between atoms: _429  and  _431
REMARK  184  A    between atoms: _431  and  _432
REMARK  185  A    between atoms: _431  and  _434
REMARK  186  A    between atoms: _434  and  _435
REMARK  187  A    between atoms: _440  and  _442
REMARK  188  A    between atoms: _442  and  _443
REMARK  189  A    between atoms: _445  and  _447
REMARK  190  A    between atoms: _447  and  _448
REMARK  191  A    between atoms: _447  and  _450
REMARK  192  A    between atoms: _450  and  _451
REMARK  193  A    between atoms: _454  and  _456
REMARK  194  A    between atoms: _456  and  _457
REMARK  195  A    between atoms: _456  and  _459
REMARK  196  A    between atoms: _459  and  _460
REMARK  197  A    between atoms: _460  and  _461
REMARK  198  A    between atoms: _461  and  _462
REMARK  199  A    between atoms: _462  and  _463
REMARK  200  A    between atoms: _467  and  _469
REMARK  201  A    between atoms: _469  and  _470
REMARK  202  A    between atoms: _469  and  _472
REMARK  203  A    between atoms: _475  and  _477
REMARK  204  A    between atoms: _477  and  _478
REMARK  205  A    between atoms: _477  and  _480
REMARK  206  A    between atoms: _480  and  _481
REMARK  207  A    between atoms: _484  and  _486
REMARK  208  A    between atoms: _486  and  _487
REMARK  209  A    between atoms: _486  and  _489
REMARK  210  A    between atoms: _489  and  _490
REMARK  211  A    between atoms: _493  and  _495
REMARK  212  A    between atoms: _495  and  _496
REMARK  213  A    between atoms: _495  and  _498
REMARK  214  A    between atoms: _498  and  _499
REMARK  215  A    between atoms: _502  and  _504
REMARK  216  A    between atoms: _504  and  _505
REMARK  217  A    between atoms: _504  and  _507
REMARK  218  A    between atoms: _507  and  _508
REMARK  219  A    between atoms: _508  and  _509
REMARK  220  A    between atoms: _509  and  _510
REMARK  221  A    between atoms: _510  and  _511
REMARK  222  A    between atoms: _515  and  _517
REMARK  223  A    between atoms: _517  and  _518
REMARK  224  A    between atoms: _517  and  _520
REMARK  225  A    between atoms: _520  and  _521
REMARK  226  A    between atoms: _526  and  _527
REMARK                            x       y       z     vdW  Elec       q    Type
REMARK                         _______ _______ _______ _____ _____    ______ ____
ROOT
ATOM      1  C   THR A   3      28.412  15.797  31.995  0.00  0.00    +0.243 C 
ATOM      2  O   THR A   3      28.913  16.432  32.904  0.00  0.00    -0.273 OA
ATOM      3  N   LYS A   4      27.458  14.881  32.174  0.00  0.00    -0.297 N 
ATOM      4  H   LYS A   4      27.070  14.394  31.341  0.00  0.00    +0.150 HD
ENDROOT
BRANCH   3   5
ATOM      5  CA  LYS A   4      26.940  14.538  33.493  0.00  0.00    +0.149 C 
BRANCH   5   6
ATOM      6  C   LYS A   4      26.827  13.016  33.616  0.00  0.00    +0.241 C 
ATOM      7  N   HIS A   5      27.630  12.451  34.515  0.00  0.00    -0.298 N 
ATOM      8  H   HIS A   5      28.324  13.051  35.004  0.00  0.00    +0.150 HD
ATOM      9  O   LYS A   4      26.036  12.369  32.891  0.00  0.00    -0.273 OA
BRANCH   7  10
ATOM     10  CA  HIS A   5      27.584  11.024  34.849  0.00  0.00    +0.143 C 
BRANCH  10  11
ATOM     11  C   HIS A   5      26.859  10.857  36.186  0.00  0.00    +0.227 C 
ATOM     12  O   HIS A   5      26.965  11.719  37.057  0.00  0.00    -0.286 OA
ENDBRANCH  10  11
BRANCH  10  13
ATOM     13  CB  HIS A   5      29.011  10.499  34.965  0.00  0.00    +0.075 C 
BRANCH  13  14
ATOM     14  CG  HIS A   5      29.117   9.016  35.183  0.00  0.00    +0.082 A 
ATOM     15  ND1 HIS A   5      28.866   8.417  36.401  0.00  0.00    -0.227 NA
ATOM     16  CE1 HIS A   5      29.064   7.114  36.301  0.00  0.00    +0.199 A 
ATOM     17  NE2 HIS A   5      29.451   6.848  35.064  0.00  0.00    -0.221 NA
ATOM     18  CD2 HIS A   5      29.502   8.023  34.349  0.00  0.00    +0.115 A 
ENDBRANCH  13  14
ENDBRANCH  10  13
ENDBRANCH   7  10
ENDBRANCH   5   6
BRANCH   5  19
ATOM     19  CB  LYS A   4      25.578  15.226  33.742  0.00  0.00    +0.029 C 
BRANCH  19  20
ATOM     20  CG  LYS A   4      24.875  14.806  35.102  0.00  0.00    +0.000 C 
BRANCH  20  21
ATOM     21  CD  LYS A   4      25.591  15.406  36.321  0.00  0.00    -0.024 C 
BRANCH  21  22
ATOM     22  CE  LYS A   4      24.807  15.165  37.664  0.00  0.00    -0.086 C 
BRANCH  22  23
ATOM     23  NZ  LYS A   4      24.827  13.712  38.085  0.00  0.00    +0.380 N 
ATOM     24  HZ1 LYS A   4      24.298  13.603  38.974  0.00  0.00    -0.089 HD
ATOM     25  HZ2 LYS A   4      25.811  13.407  38.226  0.00  0.00    -0.089 HD
ATOM     26  HZ3 LYS A   4      24.385  13.131  37.344  0.00  0.00    -0.089 HD
ENDBRANCH  22  23
ENDBRANCH  21  22
ENDBRANCH  20  21
ENDBRANCH  19  20
ENDBRANCH   5  19
ENDBRANCH   3   5
BRANCH   1  27
ATOM     27  CA  THR A   3      28.885  16.003  30.545  0.00  0.00    +0.176 C 
BRANCH  27  29
ATOM     28  C   ILE A   2      28.981  17.868  29.014  0.00  0.00    +0.241 C 
ATOM     29  N   THR A   3      29.205  17.390  30.237  0.00  0.00    -0.295 N 
ATOM     30  H   THR A   3      29.608  18.007  30.971  0.00  0.00    +0.150 HD
ATOM     31  O   ILE A   2      28.402  17.213  28.148  0.00  0.00    -0.273 OA
BRANCH  28  32
ATOM     32  CA  ILE A   2      29.464  19.294  28.718  0.00  0.00    +0.148 C 
BRANCH  32  35
ATOM     33  C   VAL A   1      31.493  19.153  27.370  0.00  0.00    +0.238 C 
ATOM     34  O   VAL A   1      32.251  19.186  28.386  0.00  0.00    -0.274 OA
ATOM     35  N   ILE A   2      30.167  19.276  27.433  0.00  0.00    -0.297 N 
ATOM     36  H   ILE A   2      29.621  19.361  26.552  0.00  0.00    +0.150 HD
BRANCH  33  37
ATOM     37  CA  VAL A   1      32.074  18.987  25.972  0.00  0.00    +0.145 C 
BRANCH  37  38
ATOM     38  CB  VAL A   1      32.991  17.722  25.910  0.00  0.00    +0.025 C 
ATOM     39  CG2 VAL A   1      32.200  16.436  26.363  0.00  0.00    +0.002 C 
ATOM     40  CG1 VAL A   1      33.597  17.535  24.504  0.00  0.00    +0.002 C 
ENDBRANCH  37  38
BRANCH  37  41
ATOM     41  N   VAL A   1      32.761  20.222  25.595  0.00  0.00    -0.238 NA
ATOM     42  H   VAL A   1      33.601  20.519  26.132  0.00  0.00    +0.142 HD
ENDBRANCH  37  41
ENDBRANCH  33  37
ENDBRANCH  32  35
BRANCH  32  43
ATOM     43  CB  ILE A   2      28.217  20.256  28.735  0.00  0.00    +0.027 C 
ATOM     44  CG2 ILE A   2      27.583  20.361  30.184  0.00  0.00    +0.002 C 
BRANCH  43  45
ATOM     45  CG1 ILE A   2      28.494  21.613  28.063  0.00  0.00    +0.002 C 
ATOM     46  CD1 ILE A   2      29.467  22.505  28.769  0.00  0.00    +0.000 C 
ENDBRANCH  43  45
ENDBRANCH  32  43
ENDBRANCH  28  32
ENDBRANCH  27  29
BRANCH  27  47
ATOM     47  CB  THR A   3      30.098  15.067  30.231  0.00  0.00    +0.137 C 
ATOM     48  CG2 THR A   3      31.232  15.230  31.236  0.00  0.00    +0.034 C 
BRANCH  47  49
ATOM     49  OG1 THR A   3      29.680  13.701  30.165  0.00  0.00    -0.382 OA
ATOM     50  HG1 THR A   3      29.003  13.598  29.450  0.00  0.00    +0.210 HD
ENDBRANCH  47  49
ENDBRANCH  27  47
ENDBRANCH   1  27
TORSDOF 22
REMARK  Name = ../refined-set-2016/2uwd/2uwd_pocket.pdb
REMARK  226 active torsions:
REMARK  status: ('A' for Active; 'I' for Inactive)
REMARK    1  A    between atoms: _1  and  _3
REMARK    2  A    between atoms: _3  and  _4
REMARK    3  A    between atoms: _3  and  _6
REMARK    4  A    between atoms: _6  and  _7
REMARK    5  A    between atoms: _13  and  _15
REMARK    6  A    between atoms: _15  and  _16
REMARK    7  A    between atoms: _15  and  _18
REMARK    8  A    between atoms: _18  and  _19
REMARK    9  A    between atoms: _22  and  _24
REMARK   10  A    between atoms: _24  and  _25
REMARK   11  A    between atoms: _24  and  _27
REMARK   12  A    between atoms: _27  and  _28
REMARK   13  A    between atoms: _28  and  _29
REMARK   14  A    between atoms: _32  and  _34
REMARK   15  A    between atoms: _34  and  _35
REMARK   16  A    between atoms: _34  and  _37
REMARK   17  A    between atoms: _37  and  _38
REMARK   18  A    between atoms: _41  and  _43
REMARK   19  A    between atoms: _43  and  _44
REMARK   20  A    between atoms: _43  and  _46
REMARK   21  A    between atoms: _46  and  _47
REMARK   22  A    between atoms: _50  and  _52
REMARK   23  A    between atoms: _52  and  _53
REMARK   24  A    between atoms: _52  and  _55
REMARK   25  A    between atoms: _55  and  _56
REMARK   26  A    between atoms: _58  and  _60
REMARK   27  A    between atoms: _60  and  _61
REMARK   28  A    between atoms: _60  and  _63
REMARK   29  A    between atoms: _63  and  _64
REMARK   30  A    between atoms: _69  and  _71
REMARK   31  A    between atoms: _71  and  _72
REMARK   32  A    between atoms: _71  and  _74
REMARK   33  A    between atoms: _74  and  _75
REMARK   34  A    between atoms: _77  and  _79
REMARK   35  A    between atoms: _79  and  _80
REMARK   36  A    between atoms: _79  and  _82
REMARK   37  A    between atoms: _82  and  _83
REMARK   38  A    between atoms: _85  and  _87
REMARK   39  A    between atoms: _87  and  _88
REMARK   40  A    between atoms: _87  and  _90
REMARK   41  A    between atoms: _90  and  _91
REMARK   42  A    between atoms: _94  and  _96
REMARK   43  A    between atoms: _96  and  _97
REMARK   44  A    between atoms: _100  and  _102
REMARK   45  A    between atoms: _102  and  _103
REMARK   46  A    between atoms: _102  and  _105
REMARK   47  A    between atoms: _105  and  _106
REMARK   48  A    between atoms: _109  and  _111
REMARK   49  A    between atoms: _111  and  _112
REMARK   50  A    between atoms: _111  and  _114
REMARK   51  A    between atoms: _114  and  _115
REMARK   52  A    between atoms: _118  and  _120
REMARK   53  A    between atoms: _120  and  _121
REMARK   54  A    between atoms: _120  and  _123
REMARK   55  A    between atoms: _123  and  _124
REMARK   56  A    between atoms: _124  and  _125
REMARK   57  A    between atoms: _125  and  _126
REMARK   58  A    between atoms: _126  and  _127
REMARK   59  A    between atoms: _131  and  _133
REMARK   60  A    between atoms: _133  and  _134
REMARK   61  A    between atoms: _133  and  _136
REMARK   62  A    between atoms: _136  and  _137
REMARK   63  A    between atoms: _140  and  _142
REMARK   64  A    between atoms: _142  and  _143
REMARK   65  A    between atoms: _142  and  _145
REMARK   66  A    between atoms: _145  and  _146
REMARK   67  A    between atoms: _146  and  _147
REMARK   68  A    between atoms: _150  and  _152
REMARK   69  A    between atoms: _152  and  _153
REMARK   70  A    between atoms: _152  and  _155
REMARK   71  A    between atoms: _155  and  _156
REMARK   72  A    between atoms: _159  and  _161
REMARK   73  A    between atoms: _161  and  _162
REMARK   74  A    between atoms: _161  and  _164
REMARK   75  A    between atoms: _164  and  _165
REMARK   76  A    between atoms: _168  and  _170
REMARK   77  A    between atoms: _170  and  _171
REMARK   78  A    between atoms: _170  and  _173
REMARK   79  A    between atoms: _176  and  _178
REMARK   80  A    between atoms: _178  and  _179
REMARK   81  A    between atoms: _178  and  _181
REMARK   82  A    between atoms: _181  and  _182
REMARK   83  A    between atoms: _185  and  _187
REMARK   84  A    between atoms: _187  and  _188
REMARK   85  A    between atoms: _187  and  _190
REMARK   86  A    between atoms: _190  and  _191
REMARK   87  A    between atoms: _194  and  _196
REMARK   88  A    between atoms: _196  and  _197
REMARK   89  A    between atoms: _199  and  _201
REMARK   90  A    between atoms: _201  and  _202
REMARK   91  A    between atoms: _201  and  _204
REMARK   92  A    between atoms: _204  and  _205
REMARK   93  A    between atoms: _208  and  _210
REMARK   94  A    between atoms: _210  and  _211
REMARK   95  A    between atoms: _213  and  _215
REMARK   96  A    between atoms: _215  and  _216
REMARK   97  A    between atoms: _215  and  _218
REMARK   98  A    between atoms: _218  and  _219
REMARK   99  A    between atoms: _219  and  _220
REMARK  100  A    between atoms: _222  and  _224
REMARK  101  A    between atoms: _224  and  _225
REMARK  102  A    between atoms: _224  and  _227
REMARK  103  A    between atoms: _227  and  _228
REMARK  104  A    between atoms: _231  and  _233
REMARK  105  A    between atoms: _233  and  _234
REMARK  106  A    between atoms: _237  and  _239
REMARK  107  A    between atoms: _239  and  _240
REMARK  108  A    between atoms: _239  and  _242
REMARK  109  A    between atoms: _242  and  _243
REMARK  110  A    between atoms: _246  and  _248
REMARK  111  A    between atoms: _248  and  _249
REMARK  112  A    between atoms: _248  and  _251
REMARK  113  A    between atoms: _251  and  _252
REMARK  114  A    between atoms: _255  and  _257
REMARK  115  A    between atoms: _257  and  _258
REMARK  116  A    between atoms: _257  and  _260
REMARK  117  A    between atoms: _260  and  _261
REMARK  118  A    between atoms: _266  and  _268
REMARK  119  A    between atoms: _268  and  _269
REMARK  120  A    between atoms: _268  and  _271
REMARK  121  A    between atoms: _271  and  _272
REMARK  122  A    between atoms: _277  and  _279
REMARK  123  A    between atoms: _279  and  _280
REMARK  124  A    between atoms: _279  and  _282
REMARK  125  A    between atoms: _282  and  _283
REMARK  126  A    between atoms: _286  and  _288
REMARK  127  A    between atoms: _288  and  _289
REMARK  128  A    between atoms: _291  and  _293
REMARK  129  A    between atoms: _293  and  _294
REMARK  130  A    between atoms: _293  and  _296
REMARK  131  A    between atoms: _296  and  _297
REMARK  132  A    between atoms: _300  and  _302
REMARK  133  A    between atoms: _302  and  _303
REMARK  134  A    between atoms: _302  and  _305
REMARK  135  A    between atoms: _305  and  _306
REMARK  136  A    between atoms: _309  and  _311
REMARK  137  A    between atoms: _311  and  _312
REMARK  138  A    between atoms: _315  and  _317
REMARK  139  A    between atoms: _317  and  _318
REMARK  140  A    between atoms: _320  and  _322
REMARK  141  A    between atoms: _322  and  _323
REMARK  142  A    between atoms: _322  and  _325
REMARK  143  A    between atoms: _325  and  _326
REMARK  144  A    between atoms: _332  and  _334
REMARK  145  A    between atoms: _334  and  _335
REMARK  146  A    between atoms: _337  and  _339
REMARK  147  A    between atoms: _339  and  _340
REMARK  148  A    between atoms: _339  and  _342
REMARK  149  A    between atoms: _345  and  _347
REMARK  150  A    between atoms: _347  and  _348
REMARK  151  A    between atoms: _350  and  _352
REMARK  152  A    between atoms: _352  and  _353
REMARK  153  A    between atoms: _352  and  _355
REMARK  154  A    between atoms: _355  and  _356
REMARK  155  A    between atoms: _362  and  _364
REMARK  156  A    between atoms: _364  and  _365
REMARK  157  A    between atoms: _364  and  _367
REMARK  158  A    between atoms: _367  and  _368
REMARK  159  A    between atoms: _373  and  _374
REMARK  160  A    between atoms: _376  and  _378
REMARK  161  A    between atoms: _378  and  _379
REMARK  162  A    between atoms: _382  and  _384
REMARK  163  A    between atoms: _384  and  _385
REMARK  164  A    between atoms: _384  and  _387
REMARK  165  A    between atoms: _390  and  _392
REMARK  166  A    between atoms: _392  and  _393
REMARK  167  A    between atoms: _392  and  _395
REMARK  168  A    between atoms: _398  and  _400
REMARK  169  A    between atoms: _400  and  _401
REMARK  170  A    between atoms: _400  and  _403
REMARK  171  A    between atoms: _403  and  _404
REMARK  172  A    between atoms: _407  and  _409
REMARK  173  A    between atoms: _409  and  _410
REMARK  174  A    between atoms: _409  and  _412
REMARK  175  A    between atoms: _412  and  _413
REMARK  176  A    between atoms: _416  and  _418
REMARK  177  A    between atoms: _418  and  _419
REMARK  178  A    between atoms: _418  and  _421
REMARK  179  A    between atoms: _421  and  _422
REMARK  180  A    between atoms: _422  and  _423
REMARK  181  A    between atoms: _423  and  _424
REMARK  182  A    between atoms: _424  and  _425
REMARK  183  A    between atoms: _429  and  _431
REMARK  184  A    between atoms: _431  and  _432
REMARK  185  A    between atoms: _431  and  _434
REMARK  186  A    between atoms: _434  and  _435
REMARK  187  A    between atoms: _440  and  _442
REMARK  188  A    between atoms: _442  and  _443
REMARK  189  A    between atoms: _445  and  _447
REMARK  190  A    between atoms: _447  and  _448
REMARK  191  A    between atoms: _447  and  _450
REMARK  192  A    between atoms: _450  and  _451
REMARK  193  A    between atoms: _454  and  _456
REMARK  194  A    between atoms: _456  and  _457
REMARK  195  A    between atoms: _456  and  _459
REMARK  196  A    between atoms: _459  and  _460
REMARK  197  A    between atoms: _460  and  _461
REMARK  198  A    between atoms: _461  and  _462
REMARK  199  A    between atoms: _462  and  _463
REMARK  200  A    between atoms: _467  and  _469
REMARK  201  A    between atoms: _469  and  _470
REMARK  202  A    between atoms: _469  and  _472
REMARK  203  A    between atoms: _475  and  _477
REMARK  204  A    between atoms: _477  and  _478
REMARK  205  A    between atoms: _477  and  _480
REMARK  206  A    between atoms: _480  and  _481
REMARK  207  A    between atoms: _484  and  _486
REMARK  208  A    between atoms: _486  and  _487
REMARK  209  A    between atoms: _486  and  _489
REMARK  210  A    between atoms: _489  and  _490
REMARK  211  A    between atoms: _493  and  _495
REMARK  212  A    between atoms: _495  and  _496
REMARK  213  A    between atoms: _495  and  _498
REMARK  214  A    between atoms: _498  and  _499
REMARK  215  A    between atoms: _502  and  _504
REMARK  216  A    between atoms: _504  and  _505
REMARK  217  A    between atoms: _504  and  _507
REMARK  218  A    between atoms: _507  and  _508
REMARK  219  A    between atoms: _508  and  _509
REMARK  220  A    between atoms: _509  and  _510
REMARK  221  A    between atoms: _510  and  _511
REMARK  222  A    between atoms: _515  and  _517
REMARK  223  A    between atoms: _517  and  _518
REMARK  224  A    between atoms: _517  and  _520
REMARK  225  A    between atoms: _520  and  _521
REMARK  226  A    between atoms: _526  and  _527
REMARK                            x       y       z     vdW  Elec       q    Type
REMARK                         _______ _______ _______ _____ _____    ______ ____
ROOT
ATOM      1  C   LYS A   3      27.957  18.072  24.447  0.00  0.00    +0.241 C 
ATOM      2  O   LYS A   3      28.858  18.559  25.150  0.00  0.00    -0.273 OA
ATOM      3  N   VAL A   4      28.075  17.922  23.135  0.00  0.00    -0.297 N 
ATOM      4  H   VAL A   4      27.292  17.478  22.614  0.00  0.00    +0.150 HD
ENDROOT
BRANCH   3   5
ATOM      5  CA  VAL A   4      29.258  18.353  22.386  0.00  0.00    +0.149 C 
BRANCH   5   6
ATOM      6  C   VAL A   4      28.889  19.598  21.562  0.00  0.00    +0.241 C 
ATOM      7  N   ILE A   5      29.493  20.729  21.913  0.00  0.00    -0.297 N 
ATOM      8  H   ILE A   5      30.146  20.732  22.723  0.00  0.00    +0.150 HD
ATOM      9  O   VAL A   4      28.086  19.529  20.621  0.00  0.00    -0.273 OA
BRANCH   7  10
ATOM     10  CA  ILE A   5      29.252  21.971  21.175  0.00  0.00    +0.149 C 
BRANCH  10  11
ATOM     11  C   ILE A   5      30.434  22.298  20.245  0.00  0.00    +0.241 C 
ATOM     12  O   ILE A   5      31.547  22.528  20.714  0.00  0.00    -0.273 OA
ATOM     13  N   LEU A   6      30.171  22.267  18.938  0.00  0.00    -0.298 N 
ATOM     14  H   LEU A   6      29.200  22.043  18.641  0.00  0.00    +0.150 HD
BRANCH  13  15
ATOM     15  CA  LEU A   6      31.160  22.528  17.899  0.00  0.00    +0.137 C 
BRANCH  15  16
ATOM     16  C   LEU A   6      30.984  23.972  17.465  0.00  0.00    +0.227 C 
ATOM     17  O   LEU A   6      29.969  24.325  16.864  0.00  0.00    -0.286 OA
ENDBRANCH  15  16
BRANCH  15  18
ATOM     18  CB  LEU A   6      30.969  21.569  16.697  0.00  0.00    +0.028 C 
BRANCH  18  19
ATOM     19  CG  LEU A   6      30.839  20.077  17.055  0.00  0.00    +0.002 C 
ATOM     20  CD2 LEU A   6      32.181  19.504  17.534  0.00  0.00    +0.000 C 
ATOM     21  CD1 LEU A   6      30.268  19.273  15.922  0.00  0.00    +0.000 C 
ENDBRANCH  18  19
ENDBRANCH  15  18
ENDBRANCH  13  15
ENDBRANCH  10  11
BRANCH  10  22
ATOM     22  CB  ILE A   5      28.970  23.161  22.128  0.00  0.00    +0.027 C 
ATOM     23  CG2 ILE A   5      28.669  24.452  21.313  0.00  0.00    +0.002 C 
BRANCH  22  24
ATOM     24  CG1 ILE A   5      27.866  22.795  23.129  0.00  0.00    +0.002 C 
ATOM     25  CD1 ILE A   5      27.911  23.642  24.414  0.00  0.00    +0.000 C 
ENDBRANCH  22  24
ENDBRANCH  10  22
ENDBRANCH   7  10
ENDBRANCH   5   6
BRANCH   5  26
ATOM     26  CB  VAL A   4      29.846  17.220  21.452  0.00  0.00    +0.027 C 
ATOM     27  CG2 VAL A   4      30.207  15.963  22.252  0.00  0.00    +0.002 C 
ATOM     28  CG1 VAL A   4      31.092  17.751  20.659  0.00  0.00    +0.002 C 
ENDBRANCH   5  26
ENDBRANCH   3   5
BRANCH   1  29
ATOM     29  CA  LYS A   3      26.623  17.589  25.056  0.00  0.00    +0.149 C 
BRANCH  29  31
ATOM     30  C   THR A   2      26.383  15.316  25.957  0.00  0.00    +0.243 C 
ATOM     31  N   LYS A   3      26.857  16.554  26.037  0.00  0.00    -0.297 N 
ATOM     32  H   LYS A   3      27.438  16.796  26.865  0.00  0.00    +0.150 HD
ATOM     33  O   THR A   2      25.554  14.917  25.092  0.00  0.00    -0.273 OA
BRANCH  30  34
ATOM     34  CA  THR A   2      26.914  14.387  27.053  0.00  0.00    +0.176 C 
BRANCH  34  37
ATOM     35  C   GLY A   1      25.717  13.367  28.899  0.00  0.00    +0.240 C 
ATOM     36  O   GLY A   1      26.428  13.897  29.748  0.00  0.00    -0.274 OA
ATOM     37  N   THR A   2      25.830  13.594  27.595  0.00  0.00    -0.295 N 
ATOM     38  H   THR A   2      25.122  13.192  26.947  0.00  0.00    +0.150 HD
BRANCH  35  39
ATOM     39  CA  GLY A   1      24.650  12.392  29.289  0.00  0.00    +0.169 C 
BRANCH  39  40
ATOM     40  N   GLY A   1      24.230  12.540  30.680  0.00  0.00    -0.236 NA
ATOM     41  H   GLY A   1      24.945  12.600  31.433  0.00  0.00    +0.142 HD
ENDBRANCH  39  40
ENDBRANCH  35  39
ENDBRANCH  34  37
BRANCH  34  42
ATOM     42  CB  THR A   2      28.075  13.462  26.584  0.00  0.00    +0.137 C 
ATOM     43  CG2 THR A   2      29.262  14.229  25.949  0.00  0.00    +0.034 C 
BRANCH  42  44
ATOM     44  OG1 THR A   2      28.541  12.720  27.716  0.00  0.00    -0.382 OA
ATOM     45  HG1 THR A   2      28.864  13.348  28.410  0.00  0.00    +0.210 HD
ENDBRANCH  42  44
ENDBRANCH  34  42
ENDBRANCH  30  34
ENDBRANCH  29  31
BRANCH  29  46
ATOM     46  CB  LYS A   3      25.889  18.756  25.727  0.00  0.00    +0.029 C 
BRANCH  46  47
ATOM     47  CG  LYS A   3      25.456  19.856  24.787  0.00  0.00    +0.000 C 
BRANCH  47  48
ATOM     48  CD  LYS A   3      25.091  21.158  25.518  0.00  0.00    -0.024 C 
BRANCH  48  49
ATOM     49  CE  LYS A   3      24.174  20.906  26.710  0.00  0.00    -0.086 C 
BRANCH  49  50
ATOM     50  NZ  LYS A   3      23.464  22.148  27.177  0.00  0.00    +0.380 N 
ATOM     51  HZ1 LYS A   3      22.856  21.914  27.988  0.00  0.00    -0.089 HD
ATOM     52  HZ2 LYS A   3      24.166  22.861  27.462  0.00  0.00    -0.089 HD
ATOM     53  HZ3 LYS A   3      22.881  22.524  26.403  0.00  0.00    -0.089 HD
ENDBRANCH  49  50
ENDBRANCH  48  49
ENDBRANCH  47  48
ENDBRANCH  46  47
ENDBRANCH  29  46
ENDBRANCH   1  29
TORSDOF 24
REMARK  Name = ../refined-set-2016/2uwd/2uwd_pocket.pdb
REMARK  226 active torsions:
REMARK  status: ('A' for Active; 'I' for Inactive)
REMARK    1  A    between atoms: _1  and  _3
REMARK    2  A    between atoms: _3  and  _4
REMARK    3  A    between atoms: _3  and  _6
REMARK    4  A    between atoms: _6  and  _7
REMARK    5  A    between atoms: _13  and  _15
REMARK    6  A    between atoms: _15  and  _16
REMARK    7  A    between atoms: _15  and  _18
REMARK    8  A    between atoms: _18  and  _19
REMARK    9  A    between atoms: _22  and  _24
REMARK   10  A    between atoms: _24  and  _25
REMARK   11  A    between atoms: _24  and  _27
REMARK   12  A    between atoms: _27  and  _28
REMARK   13  A    between atoms: _28  and  _29
REMARK   14  A    between atoms: _32  and  _34
REMARK   15  A    between atoms: _34  and  _35
REMARK   16  A    between atoms: _34  and  _37
REMARK   17  A    between atoms: _37  and  _38
REMARK   18  A    between atoms: _41  and  _43
REMARK   19  A    between atoms: _43  and  _44
REMARK   20  A    between atoms: _43  and  _46
REMARK   21  A    between atoms: _46  and  _47
REMARK   22  A    between atoms: _50  and  _52
REMARK   23  A    between atoms: _52  and  _53
REMARK   24  A    between atoms: _52  and  _55
REMARK   25  A    between atoms: _55  and  _56
REMARK   26  A    between atoms: _58  and  _60
REMARK   27  A    between atoms: _60  and  _61
REMARK   28  A    between atoms: _60  and  _63
REMARK   29  A    between atoms: _63  and  _64
REMARK   30  A    between atoms: _69  and  _71
REMARK   31  A    between atoms: _71  and  _72
REMARK   32  A    between atoms: _71  and  _74
REMARK   33  A    between atoms: _74  and  _75
REMARK   34  A    between atoms: _77  and  _79
REMARK   35  A    between atoms: _79  and  _80
REMARK   36  A    between atoms: _79  and  _82
REMARK   37  A    between atoms: _82  and  _83
REMARK   38  A    between atoms: _85  and  _87
REMARK   39  A    between atoms: _87  and  _88
REMARK   40  A    between atoms: _87  and  _90
REMARK   41  A    between atoms: _90  and  _91
REMARK   42  A    between atoms: _94  and  _96
REMARK   43  A    between atoms: _96  and  _97
REMARK   44  A    between atoms: _100  and  _102
REMARK   45  A    between atoms: _102  and  _103
REMARK   46  A    between atoms: _102  and  _105
REMARK   47  A    between atoms: _105  and  _106
REMARK   48  A    between atoms: _109  and  _111
REMARK   49  A    between atoms: _111  and  _112
REMARK   50  A    between atoms: _111  and  _114
REMARK   51  A    between atoms: _114  and  _115
REMARK   52  A    between atoms: _118  and  _120
REMARK   53  A    between atoms: _120  and  _121
REMARK   54  A    between atoms: _120  and  _123
REMARK   55  A    between atoms: _123  and  _124
REMARK   56  A    between atoms: _124  and  _125
REMARK   57  A    between atoms: _125  and  _126
REMARK   58  A    between atoms: _126  and  _127
REMARK   59  A    between atoms: _131  and  _133
REMARK   60  A    between atoms: _133  and  _134
REMARK   61  A    between atoms: _133  and  _136
REMARK   62  A    between atoms: _136  and  _137
REMARK   63  A    between atoms: _140  and  _142
REMARK   64  A    between atoms: _142  and  _143
REMARK   65  A    between atoms: _142  and  _145
REMARK   66  A    between atoms: _145  and  _146
REMARK   67  A    between atoms: _146  and  _147
REMARK   68  A    between atoms: _150  and  _152
REMARK   69  A    between atoms: _152  and  _153
REMARK   70  A    between atoms: _152  and  _155
REMARK   71  A    between atoms: _155  and  _156
REMARK   72  A    between atoms: _159  and  _161
REMARK   73  A    between atoms: _161  and  _162
REMARK   74  A    between atoms: _161  and  _164
REMARK   75  A    between atoms: _164  and  _165
REMARK   76  A    between atoms: _168  and  _170
REMARK   77  A    between atoms: _170  and  _171
REMARK   78  A    between atoms: _170  and  _173
REMARK   79  A    between atoms: _176  and  _178
REMARK   80  A    between atoms: _178  and  _179
REMARK   81  A    between atoms: _178  and  _181
REMARK   82  A    between atoms: _181  and  _182
REMARK   83  A    between atoms: _185  and  _187
REMARK   84  A    between atoms: _187  and  _188
REMARK   85  A    between atoms: _187  and  _190
REMARK   86  A    between atoms: _190  and  _191
REMARK   87  A    between atoms: _194  and  _196
REMARK   88  A    between atoms: _196  and  _197
REMARK   89  A    between atoms: _199  and  _201
REMARK   90  A    between atoms: _201  and  _202
REMARK   91  A    between atoms: _201  and  _204
REMARK   92  A    between atoms: _204  and  _205
REMARK   93  A    between atoms: _208  and  _210
REMARK   94  A    between atoms: _210  and  _211
REMARK   95  A    between atoms: _213  and  _215
REMARK   96  A    between atoms: _215  and  _216
REMARK   97  A    between atoms: _215  and  _218
REMARK   98  A    between atoms: _218  and  _219
REMARK   99  A    between atoms: _219  and  _220
REMARK  100  A    between atoms: _222  and  _224
REMARK  101  A    between atoms: _224  and  _225
REMARK  102  A    between atoms: _224  and  _227
REMARK  103  A    between atoms: _227  and  _228
REMARK  104  A    between atoms: _231  and  _233
REMARK  105  A    between atoms: _233  and  _234
REMARK  106  A    between atoms: _237  and  _239
REMARK  107  A    between atoms: _239  and  _240
REMARK  108  A    between atoms: _239  and  _242
REMARK  109  A    between atoms: _242  and  _243
REMARK  110  A    between atoms: _246  and  _248
REMARK  111  A    between atoms: _248  and  _249
REMARK  112  A    between atoms: _248  and  _251
REMARK  113  A    between atoms: _251  and  _252
REMARK  114  A    between atoms: _255  and  _257
REMARK  115  A    between atoms: _257  and  _258
REMARK  116  A    between atoms: _257  and  _260
REMARK  117  A    between atoms: _260  and  _261
REMARK  118  A    between atoms: _266  and  _268
REMARK  119  A    between atoms: _268  and  _269
REMARK  120  A    between atoms: _268  and  _271
REMARK  121  A    between atoms: _271  and  _272
REMARK  122  A    between atoms: _277  and  _279
REMARK  123  A    between atoms: _279  and  _280
REMARK  124  A    between atoms: _279  and  _282
REMARK  125  A    between atoms: _282  and  _283
REMARK  126  A    between atoms: _286  and  _288
REMARK  127  A    between atoms: _288  and  _289
REMARK  128  A    between atoms: _291  and  _293
REMARK  129  A    between atoms: _293  and  _294
REMARK  130  A    between atoms: _293  and  _296
REMARK  131  A    between atoms: _296  and  _297
REMARK  132  A    between atoms: _300  and  _302
REMARK  133  A    between atoms: _302  and  _303
REMARK  134  A    between atoms: _302  and  _305
REMARK  135  A    between atoms: _305  and  _306
REMARK  136  A    between atoms: _309  and  _311
REMARK  137  A    between atoms: _311  and  _312
REMARK  138  A    between atoms: _315  and  _317
REMARK  139  A    between atoms: _317  and  _318
REMARK  140  A    between atoms: _320  and  _322
REMARK  141  A    between atoms: _322  and  _323
REMARK  142  A    between atoms: _322  and  _325
REMARK  143  A    between atoms: _325  and  _326
REMARK  144  A    between atoms: _332  and  _334
REMARK  145  A    between atoms: _334  and  _335
REMARK  146  A    between atoms: _337  and  _339
REMARK  147  A    between atoms: _339  and  _340
REMARK  148  A    between atoms: _339  and  _342
REMARK  149  A    between atoms: _345  and  _347
REMARK  150  A    between atoms: _347  and  _348
REMARK  151  A    between atoms: _350  and  _352
REMARK  152  A    between atoms: _352  and  _353
REMARK  153  A    between atoms: _352  and  _355
REMARK  154  A    between atoms: _355  and  _356
REMARK  155  A    between atoms: _362  and  _364
REMARK  156  A    between atoms: _364  and  _365
REMARK  157  A    between atoms: _364  and  _367
REMARK  158  A    between atoms: _367  and  _368
REMARK  159  A    between atoms: _373  and  _374
REMARK  160  A    between atoms: _376  and  _378
REMARK  161  A    between atoms: _378  and  _379
REMARK  162  A    between atoms: _382  and  _384
REMARK  163  A    between atoms: _384  and  _385
REMARK  164  A    between atoms: _384  and  _387
REMARK  165  A    between atoms: _390  and  _392
REMARK  166  A    between atoms: _392  and  _393
REMARK  167  A    between atoms: _392  and  _395
REMARK  168  A    between atoms: _398  and  _400
REMARK  169  A    between atoms: _400  and  _401
REMARK  170  A    between atoms: _400  and  _403
REMARK  171  A    between atoms: _403  and  _404
REMARK  172  A    between atoms: _407  and  _409
REMARK  173  A    between atoms: _409  and  _410
REMARK  174  A    between atoms: _409  and  _412
REMARK  175  A    between atoms: _412  and  _413
REMARK  176  A    between atoms: _416  and  _418
REMARK  177  A    between atoms: _418  and  _419
REMARK  178  A    between atoms: _418  and  _421
REMARK  179  A    between atoms: _421  and  _422
REMARK  180  A    between atoms: _422  and  _423
REMARK  181  A    between atoms: _423  and  _424
REMARK  182  A    between atoms: _424  and  _425
REMARK  183  A    between atoms: _429  and  _431
REMARK  184  A    between atoms: _431  and  _432
REMARK  185  A    between atoms: _431  and  _434
REMARK  186  A    between atoms: _434  and  _435
REMARK  187  A    between atoms: _440  and  _442
REMARK  188  A    between atoms: _442  and  _443
REMARK  189  A    between atoms: _445  and  _447
REMARK  190  A    between atoms: _447  and  _448
REMARK  191  A    between atoms: _447  and  _450
REMARK  192  A    between atoms: _450  and  _451
REMARK  193  A    between atoms: _454  and  _456
REMARK  194  A    between atoms: _456  and  _457
REMARK  195  A    between atoms: _456  and  _459
REMARK  196  A    between atoms: _459  and  _460
REMARK  197  A    between atoms: _460  and  _461
REMARK  198  A    between atoms: _461  and  _462
REMARK  199  A    between atoms: _462  and  _463
REMARK  200  A    between atoms: _467  and  _469
REMARK  201  A    between atoms: _469  and  _470
REMARK  202  A    between atoms: _469  and  _472
REMARK  203  A    between atoms: _475  and  _477
REMARK  204  A    between atoms: _477  and  _478
REMARK  205  A    between atoms: _477  and  _480
REMARK  206  A    between atoms: _480  and  _481
REMARK  207  A    between atoms: _484  and  _486
REMARK  208  A    between atoms: _486  and  _487
REMARK  209  A    between atoms: _486  and  _489
REMARK  210  A    between atoms: _489  and  _490
REMARK  211  A    between atoms: _493  and  _495
REMARK  212  A    between atoms: _495  and  _496
REMARK  213  A    between atoms: _495  and  _498
REMARK  214  A    between atoms: _498  and  _499
REMARK  215  A    between atoms: _502  and  _504
REMARK  216  A    between atoms: _504  and  _505
REMARK  217  A    between atoms: _504  and  _507
REMARK  218  A    between atoms: _507  and  _508
REMARK  219  A    between atoms: _508  and  _509
REMARK  220  A    between atoms: _509  and  _510
REMARK  221  A    between atoms: _510  and  _511
REMARK  222  A    between atoms: _515  and  _517
REMARK  223  A    between atoms: _517  and  _518
REMARK  224  A    between atoms: _517  and  _520
REMARK  225  A    between atoms: _520  and  _521
REMARK  226  A    between atoms: _526  and  _527
REMARK                            x       y       z     vdW  Elec       q    Type
REMARK                         _______ _______ _______ _____ _____    ______ ____
ROOT
ATOM      1  C   ASP A   1      40.253  -1.066  26.489  0.00  0.00    +0.239 C 
ATOM      2  O   ASP A   1      40.779  -0.157  27.123  0.00  0.00    -0.274 OA
ATOM      3  N   LYS A   2      39.291  -1.848  27.004  0.00  0.00    -0.298 N 
ATOM      4  H   LYS A   2      38.902  -2.619  26.424  0.00  0.00    +0.150 HD
ENDROOT
BRANCH   1   5
ATOM      5  CA  ASP A   1      40.656  -1.325  25.023  0.00  0.00    +0.156 C 
BRANCH   5   6
ATOM      6  N   ASP A   1      40.832  -2.759  24.765  0.00  0.00    -0.238 NA
ATOM      7  H   ASP A   1      40.332  -3.171  23.952  0.00  0.00    +0.142 HD
ENDBRANCH   5   6
BRANCH   5   8
ATOM      8  CB  ASP A   1      39.585  -0.680  24.105  0.00  0.00    +0.140 C 
BRANCH   8   9
ATOM      9  CG  ASP A   1      40.017  -0.546  22.625  0.00  0.00    +0.367 C 
ATOM     10  OD2 ASP A   1      41.192  -0.730  22.262  0.00  0.00    -0.246 OA
ATOM     11  OD1 ASP A   1      39.129  -0.290  21.787  0.00  0.00    -0.246 OA
ENDBRANCH   8   9
ENDBRANCH   5   8
ENDBRANCH   1   5
BRANCH   3  12
ATOM     12  CA  LYS A   2      38.773  -1.646  28.362  0.00  0.00    +0.137 C 
BRANCH  12  13
ATOM     13  C   LYS A   2      39.777  -1.890  29.491  0.00  0.00    +0.227 C 
ATOM     14  O   LYS A   2      39.857  -1.080  30.437  0.00  0.00    -0.286 OA
ENDBRANCH  12  13
BRANCH  12  15
ATOM     15  CB  LYS A   2      37.502  -2.476  28.600  0.00  0.00    +0.028 C 
BRANCH  15  16
ATOM     16  CG  LYS A   2      36.275  -1.947  27.904  0.00  0.00    -0.000 C 
BRANCH  16  17
ATOM     17  CD  LYS A   2      35.076  -2.854  28.190  0.00  0.00    -0.024 C 
BRANCH  17  18
ATOM     18  CE  LYS A   2      33.807  -2.058  28.065  0.00  0.00    -0.086 C 
BRANCH  18  19
ATOM     19  NZ  LYS A   2      33.347  -2.012  26.672  0.00  0.00    +0.380 N 
ATOM     20  HZ1 LYS A   2      32.470  -1.456  26.616  0.00  0.00    -0.089 HD
ATOM     21  HZ2 LYS A   2      33.168  -2.980  26.335  0.00  0.00    -0.089 HD
ATOM     22  HZ3 LYS A   2      34.079  -1.568  26.081  0.00  0.00    -0.089 HD
ENDBRANCH  18  19
ENDBRANCH  17  18
ENDBRANCH  16  17
ENDBRANCH  15  16
ENDBRANCH  12  15
ENDBRANCH   3  12
TORSDOF 11
REMARK  Name = ../refined-set-2016/2uwd/2uwd_pocket.pdb
REMARK  226 active torsions:
REMARK  status: ('A' for Active; 'I' for Inactive)
REMARK    1  A    between atoms: _1  and  _3
REMARK    2  A    between atoms: _3  and  _4
REMARK    3  A    between atoms: _3  and  _6
REMARK    4  A    between atoms: _6  and  _7
REMARK    5  A    between atoms: _13  and  _15
REMARK    6  A    between atoms: _15  and  _16
REMARK    7  A    between atoms: _15  and  _18
REMARK    8  A    between atoms: _18  and  _19
REMARK    9  A    between atoms: _22  and  _24
REMARK   10  A    between atoms: _24  and  _25
REMARK   11  A    between atoms: _24  and  _27
REMARK   12  A    between atoms: _27  and  _28
REMARK   13  A    between atoms: _28  and  _29
REMARK   14  A    between atoms: _32  and  _34
REMARK   15  A    between atoms: _34  and  _35
REMARK   16  A    between atoms: _34  and  _37
REMARK   17  A    between atoms: _37  and  _38
REMARK   18  A    between atoms: _41  and  _43
REMARK   19  A    between atoms: _43  and  _44
REMARK   20  A    between atoms: _43  and  _46
REMARK   21  A    between atoms: _46  and  _47
REMARK   22  A    between atoms: _50  and  _52
REMARK   23  A    between atoms: _52  and  _53
REMARK   24  A    between atoms: _52  and  _55
REMARK   25  A    between atoms: _55  and  _56
REMARK   26  A    between atoms: _58  and  _60
REMARK   27  A    between atoms: _60  and  _61
REMARK   28  A    between atoms: _60  and  _63
REMARK   29  A    between atoms: _63  and  _64
REMARK   30  A    between atoms: _69  and  _71
REMARK   31  A    between atoms: _71  and  _72
REMARK   32  A    between atoms: _71  and  _74
REMARK   33  A    between atoms: _74  and  _75
REMARK   34  A    between atoms: _77  and  _79
REMARK   35  A    between atoms: _79  and  _80
REMARK   36  A    between atoms: _79  and  _82
REMARK   37  A    between atoms: _82  and  _83
REMARK   38  A    between atoms: _85  and  _87
REMARK   39  A    between atoms: _87  and  _88
REMARK   40  A    between atoms: _87  and  _90
REMARK   41  A    between atoms: _90  and  _91
REMARK   42  A    between atoms: _94  and  _96
REMARK   43  A    between atoms: _96  and  _97
REMARK   44  A    between atoms: _100  and  _102
REMARK   45  A    between atoms: _102  and  _103
REMARK   46  A    between atoms: _102  and  _105
REMARK   47  A    between atoms: _105  and  _106
REMARK   48  A    between atoms: _109  and  _111
REMARK   49  A    between atoms: _111  and  _112
REMARK   50  A    between atoms: _111  and  _114
REMARK   51  A    between atoms: _114  and  _115
REMARK   52  A    between atoms: _118  and  _120
REMARK   53  A    between atoms: _120  and  _121
REMARK   54  A    between atoms: _120  and  _123
REMARK   55  A    between atoms: _123  and  _124
REMARK   56  A    between atoms: _124  and  _125
REMARK   57  A    between atoms: _125  and  _126
REMARK   58  A    between atoms: _126  and  _127
REMARK   59  A    between atoms: _131  and  _133
REMARK   60  A    between atoms: _133  and  _134
REMARK   61  A    between atoms: _133  and  _136
REMARK   62  A    between atoms: _136  and  _137
REMARK   63  A    between atoms: _140  and  _142
REMARK   64  A    between atoms: _142  and  _143
REMARK   65  A    between atoms: _142  and  _145
REMARK   66  A    between atoms: _145  and  _146
REMARK   67  A    between atoms: _146  and  _147
REMARK   68  A    between atoms: _150  and  _152
REMARK   69  A    between atoms: _152  and  _153
REMARK   70  A    between atoms: _152  and  _155
REMARK   71  A    between atoms: _155  and  _156
REMARK   72  A    between atoms: _159  and  _161
REMARK   73  A    between atoms: _161  and  _162
REMARK   74  A    between atoms: _161  and  _164
REMARK   75  A    between atoms: _164  and  _165
REMARK   76  A    between atoms: _168  and  _170
REMARK   77  A    between atoms: _170  and  _171
REMARK   78  A    between atoms: _170  and  _173
REMARK   79  A    between atoms: _176  and  _178
REMARK   80  A    between atoms: _178  and  _179
REMARK   81  A    between atoms: _178  and  _181
REMARK   82  A    between atoms: _181  and  _182
REMARK   83  A    between atoms: _185  and  _187
REMARK   84  A    between atoms: _187  and  _188
REMARK   85  A    between atoms: _187  and  _190
REMARK   86  A    between atoms: _190  and  _191
REMARK   87  A    between atoms: _194  and  _196
REMARK   88  A    between atoms: _196  and  _197
REMARK   89  A    between atoms: _199  and  _201
REMARK   90  A    between atoms: _201  and  _202
REMARK   91  A    between atoms: _201  and  _204
REMARK   92  A    between atoms: _204  and  _205
REMARK   93  A    between atoms: _208  and  _210
REMARK   94  A    between atoms: _210  and  _211
REMARK   95  A    between atoms: _213  and  _215
REMARK   96  A    between atoms: _215  and  _216
REMARK   97  A    between atoms: _215  and  _218
REMARK   98  A    between atoms: _218  and  _219
REMARK   99  A    between atoms: _219  and  _220
REMARK  100  A    between atoms: _222  and  _224
REMARK  101  A    between atoms: _224  and  _225
REMARK  102  A    between atoms: _224  and  _227
REMARK  103  A    between atoms: _227  and  _228
REMARK  104  A    between atoms: _231  and  _233
REMARK  105  A    between atoms: _233  and  _234
REMARK  106  A    between atoms: _237  and  _239
REMARK  107  A    between atoms: _239  and  _240
REMARK  108  A    between atoms: _239  and  _242
REMARK  109  A    between atoms: _242  and  _243
REMARK  110  A    between atoms: _246  and  _248
REMARK  111  A    between atoms: _248  and  _249
REMARK  112  A    between atoms: _248  and  _251
REMARK  113  A    between atoms: _251  and  _252
REMARK  114  A    between atoms: _255  and  _257
REMARK  115  A    between atoms: _257  and  _258
REMARK  116  A    between atoms: _257  and  _260
REMARK  117  A    between atoms: _260  and  _261
REMARK  118  A    between atoms: _266  and  _268
REMARK  119  A    between atoms: _268  and  _269
REMARK  120  A    between atoms: _268  and  _271
REMARK  121  A    between atoms: _271  and  _272
REMARK  122  A    between atoms: _277  and  _279
REMARK  123  A    between atoms: _279  and  _280
REMARK  124  A    between atoms: _279  and  _282
REMARK  125  A    between atoms: _282  and  _283
REMARK  126  A    between atoms: _286  and  _288
REMARK  127  A    between atoms: _288  and  _289
REMARK  128  A    between atoms: _291  and  _293
REMARK  129  A    between atoms: _293  and  _294
REMARK  130  A    between atoms: _293  and  _296
REMARK  131  A    between atoms: _296  and  _297
REMARK  132  A    between atoms: _300  and  _302
REMARK  133  A    between atoms: _302  and  _303
REMARK  134  A    between atoms: _302  and  _305
REMARK  135  A    between atoms: _305  and  _306
REMARK  136  A    between atoms: _309  and  _311
REMARK  137  A    between atoms: _311  and  _312
REMARK  138  A    between atoms: _315  and  _317
REMARK  139  A    between atoms: _317  and  _318
REMARK  140  A    between atoms: _320  and  _322
REMARK  141  A    between atoms: _322  and  _323
REMARK  142  A    between atoms: _322  and  _325
REMARK  143  A    between atoms: _325  and  _326
REMARK  144  A    between atoms: _332  and  _334
REMARK  145  A    between atoms: _334  and  _335
REMARK  146  A    between atoms: _337  and  _339
REMARK  147  A    between atoms: _339  and  _340
REMARK  148  A    between atoms: _339  and  _342
REMARK  149  A    between atoms: _345  and  _347
REMARK  150  A    between atoms: _347  and  _348
REMARK  151  A    between atoms: _350  and  _352
REMARK  152  A    between atoms: _352  and  _353
REMARK  153  A    between atoms: _352  and  _355
REMARK  154  A    between atoms: _355  and  _356
REMARK  155  A    between atoms: _362  and  _364
REMARK  156  A    between atoms: _364  and  _365
REMARK  157  A    between atoms: _364  and  _367
REMARK  158  A    between atoms: _367  and  _368
REMARK  159  A    between atoms: _373  and  _374
REMARK  160  A    between atoms: _376  and  _378
REMARK  161  A    between atoms: _378  and  _379
REMARK  162  A    between atoms: _382  and  _384
REMARK  163  A    between atoms: _384  and  _385
REMARK  164  A    between atoms: _384  and  _387
REMARK  165  A    between atoms: _390  and  _392
REMARK  166  A    between atoms: _392  and  _393
REMARK  167  A    between atoms: _392  and  _395
REMARK  168  A    between atoms: _398  and  _400
REMARK  169  A    between atoms: _400  and  _401
REMARK  170  A    between atoms: _400  and  _403
REMARK  171  A    between atoms: _403  and  _404
REMARK  172  A    between atoms: _407  and  _409
REMARK  173  A    between atoms: _409  and  _410
REMARK  174  A    between atoms: _409  and  _412
REMARK  175  A    between atoms: _412  and  _413
REMARK  176  A    between atoms: _416  and  _418
REMARK  177  A    between atoms: _418  and  _419
REMARK  178  A    between atoms: _418  and  _421
REMARK  179  A    between atoms: _421  and  _422
REMARK  180  A    between atoms: _422  and  _423
REMARK  181  A    between atoms: _423  and  _424
REMARK  182  A    between atoms: _424  and  _425
REMARK  183  A    between atoms: _429  and  _431
REMARK  184  A    between atoms: _431  and  _432
REMARK  185  A    between atoms: _431  and  _434
REMARK  186  A    between atoms: _434  and  _435
REMARK  187  A    between atoms: _440  and  _442
REMARK  188  A    between atoms: _442  and  _443
REMARK  189  A    between atoms: _445  and  _447
REMARK  190  A    between atoms: _447  and  _448
REMARK  191  A    between atoms: _447  and  _450
REMARK  192  A    between atoms: _450  and  _451
REMARK  193  A    between atoms: _454  and  _456
REMARK  194  A    between atoms: _456  and  _457
REMARK  195  A    between atoms: _456  and  _459
REMARK  196  A    between atoms: _459  and  _460
REMARK  197  A    between atoms: _460  and  _461
REMARK  198  A    between atoms: _461  and  _462
REMARK  199  A    between atoms: _462  and  _463
REMARK  200  A    between atoms: _467  and  _469
REMARK  201  A    between atoms: _469  and  _470
REMARK  202  A    between atoms: _469  and  _472
REMARK  203  A    between atoms: _475  and  _477
REMARK  204  A    between atoms: _477  and  _478
REMARK  205  A    between atoms: _477  and  _480
REMARK  206  A    between atoms: _480  and  _481
REMARK  207  A    between atoms: _484  and  _486
REMARK  208  A    between atoms: _486  and  _487
REMARK  209  A    between atoms: _486  and  _489
REMARK  210  A    between atoms: _489  and  _490
REMARK  211  A    between atoms: _493  and  _495
REMARK  212  A    between atoms: _495  and  _496
REMARK  213  A    between atoms: _495  and  _498
REMARK  214  A    between atoms: _498  and  _499
REMARK  215  A    between atoms: _502  and  _504
REMARK  216  A    between atoms: _504  and  _505
REMARK  217  A    between atoms: _504  and  _507
REMARK  218  A    between atoms: _507  and  _508
REMARK  219  A    between atoms: _508  and  _509
REMARK  220  A    between atoms: _509  and  _510
REMARK  221  A    between atoms: _510  and  _511
REMARK  222  A    between atoms: _515  and  _517
REMARK  223  A    between atoms: _517  and  _518
REMARK  224  A    between atoms: _517  and  _520
REMARK  225  A    between atoms: _520  and  _521
REMARK  226  A    between atoms: _526  and  _527
REMARK                            x       y       z     vdW  Elec       q    Type
REMARK                         _______ _______ _______ _____ _____    ______ ____
ROOT
ATOM      1  CG  TYR A   1      39.896   3.867  29.738  0.00  0.00    -0.020 A 
ATOM      2  CD2 TYR A   1      38.939   3.993  30.726  0.00  0.00    -0.001 A 
ATOM      3  CE2 TYR A   1      38.514   5.223  31.170  0.00  0.00    +0.036 A 
ATOM      4  CZ  TYR A   1      39.018   6.373  30.606  0.00  0.00    +0.134 A 
ATOM      5  CE1 TYR A   1      39.977   6.318  29.603  0.00  0.00    +0.036 A 
ATOM      6  CD1 TYR A   1      40.423   5.043  29.166  0.00  0.00    -0.001 A 
ENDROOT
BRANCH   4   7
ATOM      7  OH  TYR A   1      38.548   7.557  31.087  0.00  0.00    -0.506 OA
ATOM      8  HH  TYR A   1      38.752   7.623  32.054  0.00  0.00    +0.292 HD
ENDBRANCH   4   7
BRANCH   1   9
ATOM      9  CB  TYR A   1      40.363   2.490  29.290  0.00  0.00    +0.051 C 
BRANCH   9  10
ATOM     10  CA  TYR A   1      41.790   2.190  29.766  0.00  0.00    +0.137 C 
BRANCH  10  11
ATOM     11  N   TYR A   1      42.342   0.969  29.159  0.00  0.00    -0.239 NA
ATOM     12  H   TYR A   1      41.771   0.432  28.475  0.00  0.00    +0.142 HD
ENDBRANCH  10  11
BRANCH  10  13
ATOM     13  C   TYR A   1      41.826   2.188  31.307  0.00  0.00    +0.224 C 
ATOM     14  O   TYR A   1      42.252   3.173  31.913  0.00  0.00    -0.287 OA
ENDBRANCH  10  13
ENDBRANCH   9  10
ENDBRANCH   1   9
TORSDOF 5
REMARK  Name = ../refined-set-2016/2uwd/2uwd_pocket.pdb
REMARK  226 active torsions:
REMARK  status: ('A' for Active; 'I' for Inactive)
REMARK    1  A    between atoms: _1  and  _3
REMARK    2  A    between atoms: _3  and  _4
REMARK    3  A    between atoms: _3  and  _6
REMARK    4  A    between atoms: _6  and  _7
REMARK    5  A    between atoms: _13  and  _15
REMARK    6  A    between atoms: _15  and  _16
REMARK    7  A    between atoms: _15  and  _18
REMARK    8  A    between atoms: _18  and  _19
REMARK    9  A    between atoms: _22  and  _24
REMARK   10  A    between atoms: _24  and  _25
REMARK   11  A    between atoms: _24  and  _27
REMARK   12  A    between atoms: _27  and  _28
REMARK   13  A    between atoms: _28  and  _29
REMARK   14  A    between atoms: _32  and  _34
REMARK   15  A    between atoms: _34  and  _35
REMARK   16  A    between atoms: _34  and  _37
REMARK   17  A    between atoms: _37  and  _38
REMARK   18  A    between atoms: _41  and  _43
REMARK   19  A    between atoms: _43  and  _44
REMARK   20  A    between atoms: _43  and  _46
REMARK   21  A    between atoms: _46  and  _47
REMARK   22  A    between atoms: _50  and  _52
REMARK   23  A    between atoms: _52  and  _53
REMARK   24  A    between atoms: _52  and  _55
REMARK   25  A    between atoms: _55  and  _56
REMARK   26  A    between atoms: _58  and  _60
REMARK   27  A    between atoms: _60  and  _61
REMARK   28  A    between atoms: _60  and  _63
REMARK   29  A    between atoms: _63  and  _64
REMARK   30  A    between atoms: _69  and  _71
REMARK   31  A    between atoms: _71  and  _72
REMARK   32  A    between atoms: _71  and  _74
REMARK   33  A    between atoms: _74  and  _75
REMARK   34  A    between atoms: _77  and  _79
REMARK   35  A    between atoms: _79  and  _80
REMARK   36  A    between atoms: _79  and  _82
REMARK   37  A    between atoms: _82  and  _83
REMARK   38  A    between atoms: _85  and  _87
REMARK   39  A    between atoms: _87  and  _88
REMARK   40  A    between atoms: _87  and  _90
REMARK   41  A    between atoms: _90  and  _91
REMARK   42  A    between atoms: _94  and  _96
REMARK   43  A    between atoms: _96  and  _97
REMARK   44  A    between atoms: _100  and  _102
REMARK   45  A    between atoms: _102  and  _103
REMARK   46  A    between atoms: _102  and  _105
REMARK   47  A    between atoms: _105  and  _106
REMARK   48  A    between atoms: _109  and  _111
REMARK   49  A    between atoms: _111  and  _112
REMARK   50  A    between atoms: _111  and  _114
REMARK   51  A    between atoms: _114  and  _115
REMARK   52  A    between atoms: _118  and  _120
REMARK   53  A    between atoms: _120  and  _121
REMARK   54  A    between atoms: _120  and  _123
REMARK   55  A    between atoms: _123  and  _124
REMARK   56  A    between atoms: _124  and  _125
REMARK   57  A    between atoms: _125  and  _126
REMARK   58  A    between atoms: _126  and  _127
REMARK   59  A    between atoms: _131  and  _133
REMARK   60  A    between atoms: _133  and  _134
REMARK   61  A    between atoms: _133  and  _136
REMARK   62  A    between atoms: _136  and  _137
REMARK   63  A    between atoms: _140  and  _142
REMARK   64  A    between atoms: _142  and  _143
REMARK   65  A    between atoms: _142  and  _145
REMARK   66  A    between atoms: _145  and  _146
REMARK   67  A    between atoms: _146  and  _147
REMARK   68  A    between atoms: _150  and  _152
REMARK   69  A    between atoms: _152  and  _153
REMARK   70  A    between atoms: _152  and  _155
REMARK   71  A    between atoms: _155  and  _156
REMARK   72  A    between atoms: _159  and  _161
REMARK   73  A    between atoms: _161  and  _162
REMARK   74  A    between atoms: _161  and  _164
REMARK   75  A    between atoms: _164  and  _165
REMARK   76  A    between atoms: _168  and  _170
REMARK   77  A    between atoms: _170  and  _171
REMARK   78  A    between atoms: _170  and  _173
REMARK   79  A    between atoms: _176  and  _178
REMARK   80  A    between atoms: _178  and  _179
REMARK   81  A    between atoms: _178  and  _181
REMARK   82  A    between atoms: _181  and  _182
REMARK   83  A    between atoms: _185  and  _187
REMARK   84  A    between atoms: _187  and  _188
REMARK   85  A    between atoms: _187  and  _190
REMARK   86  A    between atoms: _190  and  _191
REMARK   87  A    between atoms: _194  and  _196
REMARK   88  A    between atoms: _196  and  _197
REMARK   89  A    between atoms: _199  and  _201
REMARK   90  A    between atoms: _201  and  _202
REMARK   91  A    between atoms: _201  and  _204
REMARK   92  A    between atoms: _204  and  _205
REMARK   93  A    between atoms: _208  and  _210
REMARK   94  A    between atoms: _210  and  _211
REMARK   95  A    between atoms: _213  and  _215
REMARK   96  A    between atoms: _215  and  _216
REMARK   97  A    between atoms: _215  and  _218
REMARK   98  A    between atoms: _218  and  _219
REMARK   99  A    between atoms: _219  and  _220
REMARK  100  A    between atoms: _222  and  _224
REMARK  101  A    between atoms: _224  and  _225
REMARK  102  A    between atoms: _224  and  _227
REMARK  103  A    between atoms: _227  and  _228
REMARK  104  A    between atoms: _231  and  _233
REMARK  105  A    between atoms: _233  and  _234
REMARK  106  A    between atoms: _237  and  _239
REMARK  107  A    between atoms: _239  and  _240
REMARK  108  A    between atoms: _239  and  _242
REMARK  109  A    between atoms: _242  and  _243
REMARK  110  A    between atoms: _246  and  _248
REMARK  111  A    between atoms: _248  and  _249
REMARK  112  A    between atoms: _248  and  _251
REMARK  113  A    between atoms: _251  and  _252
REMARK  114  A    between atoms: _255  and  _257
REMARK  115  A    between atoms: _257  and  _258
REMARK  116  A    between atoms: _257  and  _260
REMARK  117  A    between atoms: _260  and  _261
REMARK  118  A    between atoms: _266  and  _268
REMARK  119  A    between atoms: _268  and  _269
REMARK  120  A    between atoms: _268  and  _271
REMARK  121  A    between atoms: _271  and  _272
REMARK  122  A    between atoms: _277  and  _279
REMARK  123  A    between atoms: _279  and  _280
REMARK  124  A    between atoms: _279  and  _282
REMARK  125  A    between atoms: _282  and  _283
REMARK  126  A    between atoms: _286  and  _288
REMARK  127  A    between atoms: _288  and  _289
REMARK  128  A    between atoms: _291  and  _293
REMARK  129  A    between atoms: _293  and  _294
REMARK  130  A    between atoms: _293  and  _296
REMARK  131  A    between atoms: _296  and  _297
REMARK  132  A    between atoms: _300  and  _302
REMARK  133  A    between atoms: _302  and  _303
REMARK  134  A    between atoms: _302  and  _305
REMARK  135  A    between atoms: _305  and  _306
REMARK  136  A    between atoms: _309  and  _311
REMARK  137  A    between atoms: _311  and  _312
REMARK  138  A    between atoms: _315  and  _317
REMARK  139  A    between atoms: _317  and  _318
REMARK  140  A    between atoms: _320  and  _322
REMARK  141  A    between atoms: _322  and  _323
REMARK  142  A    between atoms: _322  and  _325
REMARK  143  A    between atoms: _325  and  _326
REMARK  144  A    between atoms: _332  and  _334
REMARK  145  A    between atoms: _334  and  _335
REMARK  146  A    between atoms: _337  and  _339
REMARK  147  A    between atoms: _339  and  _340
REMARK  148  A    between atoms: _339  and  _342
REMARK  149  A    between atoms: _345  and  _347
REMARK  150  A    between atoms: _347  and  _348
REMARK  151  A    between atoms: _350  and  _352
REMARK  152  A    between atoms: _352  and  _353
REMARK  153  A    between atoms: _352  and  _355
REMARK  154  A    between atoms: _355  and  _356
REMARK  155  A    between atoms: _362  and  _364
REMARK  156  A    between atoms: _364  and  _365
REMARK  157  A    between atoms: _364  and  _367
REMARK  158  A    between atoms: _367  and  _368
REMARK  159  A    between atoms: _373  and  _374
REMARK  160  A    between atoms: _376  and  _378
REMARK  161  A    between atoms: _378  and  _379
REMARK  162  A    between atoms: _382  and  _384
REMARK  163  A    between atoms: _384  and  _385
REMARK  164  A    between atoms: _384  and  _387
REMARK  165  A    between atoms: _390  and  _392
REMARK  166  A    between atoms: _392  and  _393
REMARK  167  A    between atoms: _392  and  _395
REMARK  168  A    between atoms: _398  and  _400
REMARK  169  A    between atoms: _400  and  _401
REMARK  170  A    between atoms: _400  and  _403
REMARK  171  A    between atoms: _403  and  _404
REMARK  172  A    between atoms: _407  and  _409
REMARK  173  A    between atoms: _409  and  _410
REMARK  174  A    between atoms: _409  and  _412
REMARK  175  A    between atoms: _412  and  _413
REMARK  176  A    between atoms: _416  and  _418
REMARK  177  A    between atoms: _418  and  _419
REMARK  178  A    between atoms: _418  and  _421
REMARK  179  A    between atoms: _421  and  _422
REMARK  180  A    between atoms: _422  and  _423
REMARK  181  A    between atoms: _423  and  _424
REMARK  182  A    between atoms: _424  and  _425
REMARK  183  A    between atoms: _429  and  _431
REMARK  184  A    between atoms: _431  and  _432
REMARK  185  A    between atoms: _431  and  _434
REMARK  186  A    between atoms: _434  and  _435
REMARK  187  A    between atoms: _440  and  _442
REMARK  188  A    between atoms: _442  and  _443
REMARK  189  A    between atoms: _445  and  _447
REMARK  190  A    between atoms: _447  and  _448
REMARK  191  A    between atoms: _447  and  _450
REMARK  192  A    between atoms: _450  and  _451
REMARK  193  A    between atoms: _454  and  _456
REMARK  194  A    between atoms: _456  and  _457
REMARK  195  A    between atoms: _456  and  _459
REMARK  196  A    between atoms: _459  and  _460
REMARK  197  A    between atoms: _460  and  _461
REMARK  198  A    between atoms: _461  and  _462
REMARK  199  A    between atoms: _462  and  _463
REMARK  200  A    between atoms: _467  and  _469
REMARK  201  A    between atoms: _469  and  _470
REMARK  202  A    between atoms: _469  and  _472
REMARK  203  A    between atoms: _475  and  _477
REMARK  204  A    between atoms: _477  and  _478
REMARK  205  A    between atoms: _477  and  _480
REMARK  206  A    between atoms: _480  and  _481
REMARK  207  A    between atoms: _484  and  _486
REMARK  208  A    between atoms: _486  and  _487
REMARK  209  A    between atoms: _486  and  _489
REMARK  210  A    between atoms: _489  and  _490
REMARK  211  A    between atoms: _493  and  _495
REMARK  212  A    between atoms: _495  and  _496
REMARK  213  A    between atoms: _495  and  _498
REMARK  214  A    between atoms: _498  and  _499
REMARK  215  A    between atoms: _502  and  _504
REMARK  216  A    between atoms: _504  and  _505
REMARK  217  A    between atoms: _504  and  _507
REMARK  218  A    between atoms: _507  and  _508
REMARK  219  A    between atoms: _508  and  _509
REMARK  220  A    between atoms: _509  and  _510
REMARK  221  A    between atoms: _510  and  _511
REMARK  222  A    between atoms: _515  and  _517
REMARK  223  A    between atoms: _517  and  _518
REMARK  224  A    between atoms: _517  and  _520
REMARK  225  A    between atoms: _520  and  _521
REMARK  226  A    between atoms: _526  and  _527
REMARK                            x       y       z     vdW  Elec       q    Type
REMARK                         _______ _______ _______ _____ _____    ______ ____
ROOT
ATOM      1  O   HOH     1      33.131   2.167  31.001  0.00  0.00    +0.000 OA
ENDROOT
TORSDOF 0
REMARK  Name = ../refined-set-2016/2uwd/2uwd_pocket.pdb
REMARK  226 active torsions:
REMARK  status: ('A' for Active; 'I' for Inactive)
REMARK    1  A    between atoms: _1  and  _3
REMARK    2  A    between atoms: _3  and  _4
REMARK    3  A    between atoms: _3  and  _6
REMARK    4  A    between atoms: _6  and  _7
REMARK    5  A    between atoms: _13  and  _15
REMARK    6  A    between atoms: _15  and  _16
REMARK    7  A    between atoms: _15  and  _18
REMARK    8  A    between atoms: _18  and  _19
REMARK    9  A    between atoms: _22  and  _24
REMARK   10  A    between atoms: _24  and  _25
REMARK   11  A    between atoms: _24  and  _27
REMARK   12  A    between atoms: _27  and  _28
REMARK   13  A    between atoms: _28  and  _29
REMARK   14  A    between atoms: _32  and  _34
REMARK   15  A    between atoms: _34  and  _35
REMARK   16  A    between atoms: _34  and  _37
REMARK   17  A    between atoms: _37  and  _38
REMARK   18  A    between atoms: _41  and  _43
REMARK   19  A    between atoms: _43  and  _44
REMARK   20  A    between atoms: _43  and  _46
REMARK   21  A    between atoms: _46  and  _47
REMARK   22  A    between atoms: _50  and  _52
REMARK   23  A    between atoms: _52  and  _53
REMARK   24  A    between atoms: _52  and  _55
REMARK   25  A    between atoms: _55  and  _56
REMARK   26  A    between atoms: _58  and  _60
REMARK   27  A    between atoms: _60  and  _61
REMARK   28  A    between atoms: _60  and  _63
REMARK   29  A    between atoms: _63  and  _64
REMARK   30  A    between atoms: _69  and  _71
REMARK   31  A    between atoms: _71  and  _72
REMARK   32  A    between atoms: _71  and  _74
REMARK   33  A    between atoms: _74  and  _75
REMARK   34  A    between atoms: _77  and  _79
REMARK   35  A    between atoms: _79  and  _80
REMARK   36  A    between atoms: _79  and  _82
REMARK   37  A    between atoms: _82  and  _83
REMARK   38  A    between atoms: _85  and  _87
REMARK   39  A    between atoms: _87  and  _88
REMARK   40  A    between atoms: _87  and  _90
REMARK   41  A    between atoms: _90  and  _91
REMARK   42  A    between atoms: _94  and  _96
REMARK   43  A    between atoms: _96  and  _97
REMARK   44  A    between atoms: _100  and  _102
REMARK   45  A    between atoms: _102  and  _103
REMARK   46  A    between atoms: _102  and  _105
REMARK   47  A    between atoms: _105  and  _106
REMARK   48  A    between atoms: _109  and  _111
REMARK   49  A    between atoms: _111  and  _112
REMARK   50  A    between atoms: _111  and  _114
REMARK   51  A    between atoms: _114  and  _115
REMARK   52  A    between atoms: _118  and  _120
REMARK   53  A    between atoms: _120  and  _121
REMARK   54  A    between atoms: _120  and  _123
REMARK   55  A    between atoms: _123  and  _124
REMARK   56  A    between atoms: _124  and  _125
REMARK   57  A    between atoms: _125  and  _126
REMARK   58  A    between atoms: _126  and  _127
REMARK   59  A    between atoms: _131  and  _133
REMARK   60  A    between atoms: _133  and  _134
REMARK   61  A    between atoms: _133  and  _136
REMARK   62  A    between atoms: _136  and  _137
REMARK   63  A    between atoms: _140  and  _142
REMARK   64  A    between atoms: _142  and  _143
REMARK   65  A    between atoms: _142  and  _145
REMARK   66  A    between atoms: _145  and  _146
REMARK   67  A    between atoms: _146  and  _147
REMARK   68  A    between atoms: _150  and  _152
REMARK   69  A    between atoms: _152  and  _153
REMARK   70  A    between atoms: _152  and  _155
REMARK   71  A    between atoms: _155  and  _156
REMARK   72  A    between atoms: _159  and  _161
REMARK   73  A    between atoms: _161  and  _162
REMARK   74  A    between atoms: _161  and  _164
REMARK   75  A    between atoms: _164  and  _165
REMARK   76  A    between atoms: _168  and  _170
REMARK   77  A    between atoms: _170  and  _171
REMARK   78  A    between atoms: _170  and  _173
REMARK   79  A    between atoms: _176  and  _178
REMARK   80  A    between atoms: _178  and  _179
REMARK   81  A    between atoms: _178  and  _181
REMARK   82  A    between atoms: _181  and  _182
REMARK   83  A    between atoms: _185  and  _187
REMARK   84  A    between atoms: _187  and  _188
REMARK   85  A    between atoms: _187  and  _190
REMARK   86  A    between atoms: _190  and  _191
REMARK   87  A    between atoms: _194  and  _196
REMARK   88  A    between atoms: _196  and  _197
REMARK   89  A    between atoms: _199  and  _201
REMARK   90  A    between atoms: _201  and  _202
REMARK   91  A    between atoms: _201  and  _204
REMARK   92  A    between atoms: _204  and  _205
REMARK   93  A    between atoms: _208  and  _210
REMARK   94  A    between atoms: _210  and  _211
REMARK   95  A    between atoms: _213  and  _215
REMARK   96  A    between atoms: _215  and  _216
REMARK   97  A    between atoms: _215  and  _218
REMARK   98  A    between atoms: _218  and  _219
REMARK   99  A    between atoms: _219  and  _220
REMARK  100  A    between atoms: _222  and  _224
REMARK  101  A    between atoms: _224  and  _225
REMARK  102  A    between atoms: _224  and  _227
REMARK  103  A    between atoms: _227  and  _228
REMARK  104  A    between atoms: _231  and  _233
REMARK  105  A    between atoms: _233  and  _234
REMARK  106  A    between atoms: _237  and  _239
REMARK  107  A    between atoms: _239  and  _240
REMARK  108  A    between atoms: _239  and  _242
REMARK  109  A    between atoms: _242  and  _243
REMARK  110  A    between atoms: _246  and  _248
REMARK  111  A    between atoms: _248  and  _249
REMARK  112  A    between atoms: _248  and  _251
REMARK  113  A    between atoms: _251  and  _252
REMARK  114  A    between atoms: _255  and  _257
REMARK  115  A    between atoms: _257  and  _258
REMARK  116  A    between atoms: _257  and  _260
REMARK  117  A    between atoms: _260  and  _261
REMARK  118  A    between atoms: _266  and  _268
REMARK  119  A    between atoms: _268  and  _269
REMARK  120  A    between atoms: _268  and  _271
REMARK  121  A    between atoms: _271  and  _272
REMARK  122  A    between atoms: _277  and  _279
REMARK  123  A    between atoms: _279  and  _280
REMARK  124  A    between atoms: _279  and  _282
REMARK  125  A    between atoms: _282  and  _283
REMARK  126  A    between atoms: _286  and  _288
REMARK  127  A    between atoms: _288  and  _289
REMARK  128  A    between atoms: _291  and  _293
REMARK  129  A    between atoms: _293  and  _294
REMARK  130  A    between atoms: _293  and  _296
REMARK  131  A    between atoms: _296  and  _297
REMARK  132  A    between atoms: _300  and  _302
REMARK  133  A    between atoms: _302  and  _303
REMARK  134  A    between atoms: _302  and  _305
REMARK  135  A    between atoms: _305  and  _306
REMARK  136  A    between atoms: _309  and  _311
REMARK  137  A    between atoms: _311  and  _312
REMARK  138  A    between atoms: _315  and  _317
REMARK  139  A    between atoms: _317  and  _318
REMARK  140  A    between atoms: _320  and  _322
REMARK  141  A    between atoms: _322  and  _323
REMARK  142  A    between atoms: _322  and  _325
REMARK  143  A    between atoms: _325  and  _326
REMARK  144  A    between atoms: _332  and  _334
REMARK  145  A    between atoms: _334  and  _335
REMARK  146  A    between atoms: _337  and  _339
REMARK  147  A    between atoms: _339  and  _340
REMARK  148  A    between atoms: _339  and  _342
REMARK  149  A    between atoms: _345  and  _347
REMARK  150  A    between atoms: _347  and  _348
REMARK  151  A    between atoms: _350  and  _352
REMARK  152  A    between atoms: _352  and  _353
REMARK  153  A    between atoms: _352  and  _355
REMARK  154  A    between atoms: _355  and  _356
REMARK  155  A    between atoms: _362  and  _364
REMARK  156  A    between atoms: _364  and  _365
REMARK  157  A    between atoms: _364  and  _367
REMARK  158  A    between atoms: _367  and  _368
REMARK  159  A    between atoms: _373  and  _374
REMARK  160  A    between atoms: _376  and  _378
REMARK  161  A    between atoms: _378  and  _379
REMARK  162  A    between atoms: _382  and  _384
REMARK  163  A    between atoms: _384  and  _385
REMARK  164  A    between atoms: _384  and  _387
REMARK  165  A    between atoms: _390  and  _392
REMARK  166  A    between atoms: _392  and  _393
REMARK  167  A    between atoms: _392  and  _395
REMARK  168  A    between atoms: _398  and  _400
REMARK  169  A    between atoms: _400  and  _401
REMARK  170  A    between atoms: _400  and  _403
REMARK  171  A    between atoms: _403  and  _404
REMARK  172  A    between atoms: _407  and  _409
REMARK  173  A    between atoms: _409  and  _410
REMARK  174  A    between atoms: _409  and  _412
REMARK  175  A    between atoms: _412  and  _413
REMARK  176  A    between atoms: _416  and  _418
REMARK  177  A    between atoms: _418  and  _419
REMARK  178  A    between atoms: _418  and  _421
REMARK  179  A    between atoms: _421  and  _422
REMARK  180  A    between atoms: _422  and  _423
REMARK  181  A    between atoms: _423  and  _424
REMARK  182  A    between atoms: _424  and  _425
REMARK  183  A    between atoms: _429  and  _431
REMARK  184  A    between atoms: _431  and  _432
REMARK  185  A    between atoms: _431  and  _434
REMARK  186  A    between atoms: _434  and  _435
REMARK  187  A    between atoms: _440  and  _442
REMARK  188  A    between atoms: _442  and  _443
REMARK  189  A    between atoms: _445  and  _447
REMARK  190  A    between atoms: _447  and  _448
REMARK  191  A    between atoms: _447  and  _450
REMARK  192  A    between atoms: _450  and  _451
REMARK  193  A    between atoms: _454  and  _456
REMARK  194  A    between atoms: _456  and  _457
REMARK  195  A    between atoms: _456  and  _459
REMARK  196  A    between atoms: _459  and  _460
REMARK  197  A    between atoms: _460  and  _461
REMARK  198  A    between atoms: _461  and  _462
REMARK  199  A    between atoms: _462  and  _463
REMARK  200  A    between atoms: _467  and  _469
REMARK  201  A    between atoms: _469  and  _470
REMARK  202  A    between atoms: _469  and  _472
REMARK  203  A    between atoms: _475  and  _477
REMARK  204  A    between atoms: _477  and  _478
REMARK  205  A    between atoms: _477  and  _480
REMARK  206  A    between atoms: _480  and  _481
REMARK  207  A    between atoms: _484  and  _486
REMARK  208  A    between atoms: _486  and  _487
REMARK  209  A    between atoms: _486  and  _489
REMARK  210  A    between atoms: _489  and  _490
REMARK  211  A    between atoms: _493  and  _495
REMARK  212  A    between atoms: _495  and  _496
REMARK  213  A    between atoms: _495  and  _498
REMARK  214  A    between atoms: _498  and  _499
REMARK  215  A    between atoms: _502  and  _504
REMARK  216  A    between atoms: _504  and  _505
REMARK  217  A    between atoms: _504  and  _507
REMARK  218  A    between atoms: _507  and  _508
REMARK  219  A    between atoms: _508  and  _509
REMARK  220  A    between atoms: _509  and  _510
REMARK  221  A    between atoms: _510  and  _511
REMARK  222  A    between atoms: _515  and  _517
REMARK  223  A    between atoms: _517  and  _518
REMARK  224  A    between atoms: _517  and  _520
REMARK  225  A    between atoms: _520  and  _521
REMARK  226  A    between atoms: _526  and  _527
REMARK                            x       y       z     vdW  Elec       q    Type
REMARK                         _______ _______ _______ _____ _____    ______ ____
ROOT
ATOM      1  O   HOH     1      34.217   7.927  16.885  0.00  0.00    +0.000 OA
ENDROOT
TORSDOF 0
REMARK  Name = ../refined-set-2016/2uwd/2uwd_pocket.pdb
REMARK  226 active torsions:
REMARK  status: ('A' for Active; 'I' for Inactive)
REMARK    1  A    between atoms: _1  and  _3
REMARK    2  A    between atoms: _3  and  _4
REMARK    3  A    between atoms: _3  and  _6
REMARK    4  A    between atoms: _6  and  _7
REMARK    5  A    between atoms: _13  and  _15
REMARK    6  A    between atoms: _15  and  _16
REMARK    7  A    between atoms: _15  and  _18
REMARK    8  A    between atoms: _18  and  _19
REMARK    9  A    between atoms: _22  and  _24
REMARK   10  A    between atoms: _24  and  _25
REMARK   11  A    between atoms: _24  and  _27
REMARK   12  A    between atoms: _27  and  _28
REMARK   13  A    between atoms: _28  and  _29
REMARK   14  A    between atoms: _32  and  _34
REMARK   15  A    between atoms: _34  and  _35
REMARK   16  A    between atoms: _34  and  _37
REMARK   17  A    between atoms: _37  and  _38
REMARK   18  A    between atoms: _41  and  _43
REMARK   19  A    between atoms: _43  and  _44
REMARK   20  A    between atoms: _43  and  _46
REMARK   21  A    between atoms: _46  and  _47
REMARK   22  A    between atoms: _50  and  _52
REMARK   23  A    between atoms: _52  and  _53
REMARK   24  A    between atoms: _52  and  _55
REMARK   25  A    between atoms: _55  and  _56
REMARK   26  A    between atoms: _58  and  _60
REMARK   27  A    between atoms: _60  and  _61
REMARK   28  A    between atoms: _60  and  _63
REMARK   29  A    between atoms: _63  and  _64
REMARK   30  A    between atoms: _69  and  _71
REMARK   31  A    between atoms: _71  and  _72
REMARK   32  A    between atoms: _71  and  _74
REMARK   33  A    between atoms: _74  and  _75
REMARK   34  A    between atoms: _77  and  _79
REMARK   35  A    between atoms: _79  and  _80
REMARK   36  A    between atoms: _79  and  _82
REMARK   37  A    between atoms: _82  and  _83
REMARK   38  A    between atoms: _85  and  _87
REMARK   39  A    between atoms: _87  and  _88
REMARK   40  A    between atoms: _87  and  _90
REMARK   41  A    between atoms: _90  and  _91
REMARK   42  A    between atoms: _94  and  _96
REMARK   43  A    between atoms: _96  and  _97
REMARK   44  A    between atoms: _100  and  _102
REMARK   45  A    between atoms: _102  and  _103
REMARK   46  A    between atoms: _102  and  _105
REMARK   47  A    between atoms: _105  and  _106
REMARK   48  A    between atoms: _109  and  _111
REMARK   49  A    between atoms: _111  and  _112
REMARK   50  A    between atoms: _111  and  _114
REMARK   51  A    between atoms: _114  and  _115
REMARK   52  A    between atoms: _118  and  _120
REMARK   53  A    between atoms: _120  and  _121
REMARK   54  A    between atoms: _120  and  _123
REMARK   55  A    between atoms: _123  and  _124
REMARK   56  A    between atoms: _124  and  _125
REMARK   57  A    between atoms: _125  and  _126
REMARK   58  A    between atoms: _126  and  _127
REMARK   59  A    between atoms: _131  and  _133
REMARK   60  A    between atoms: _133  and  _134
REMARK   61  A    between atoms: _133  and  _136
REMARK   62  A    between atoms: _136  and  _137
REMARK   63  A    between atoms: _140  and  _142
REMARK   64  A    between atoms: _142  and  _143
REMARK   65  A    between atoms: _142  and  _145
REMARK   66  A    between atoms: _145  and  _146
REMARK   67  A    between atoms: _146  and  _147
REMARK   68  A    between atoms: _150  and  _152
REMARK   69  A    between atoms: _152  and  _153
REMARK   70  A    between atoms: _152  and  _155
REMARK   71  A    between atoms: _155  and  _156
REMARK   72  A    between atoms: _159  and  _161
REMARK   73  A    between atoms: _161  and  _162
REMARK   74  A    between atoms: _161  and  _164
REMARK   75  A    between atoms: _164  and  _165
REMARK   76  A    between atoms: _168  and  _170
REMARK   77  A    between atoms: _170  and  _171
REMARK   78  A    between atoms: _170  and  _173
REMARK   79  A    between atoms: _176  and  _178
REMARK   80  A    between atoms: _178  and  _179
REMARK   81  A    between atoms: _178  and  _181
REMARK   82  A    between atoms: _181  and  _182
REMARK   83  A    between atoms: _185  and  _187
REMARK   84  A    between atoms: _187  and  _188
REMARK   85  A    between atoms: _187  and  _190
REMARK   86  A    between atoms: _190  and  _191
REMARK   87  A    between atoms: _194  and  _196
REMARK   88  A    between atoms: _196  and  _197
REMARK   89  A    between atoms: _199  and  _201
REMARK   90  A    between atoms: _201  and  _202
REMARK   91  A    between atoms: _201  and  _204
REMARK   92  A    between atoms: _204  and  _205
REMARK   93  A    between atoms: _208  and  _210
REMARK   94  A    between atoms: _210  and  _211
REMARK   95  A    between atoms: _213  and  _215
REMARK   96  A    between atoms: _215  and  _216
REMARK   97  A    between atoms: _215  and  _218
REMARK   98  A    between atoms: _218  and  _219
REMARK   99  A    between atoms: _219  and  _220
REMARK  100  A    between atoms: _222  and  _224
REMARK  101  A    between atoms: _224  and  _225
REMARK  102  A    between atoms: _224  and  _227
REMARK  103  A    between atoms: _227  and  _228
REMARK  104  A    between atoms: _231  and  _233
REMARK  105  A    between atoms: _233  and  _234
REMARK  106  A    between atoms: _237  and  _239
REMARK  107  A    between atoms: _239  and  _240
REMARK  108  A    between atoms: _239  and  _242
REMARK  109  A    between atoms: _242  and  _243
REMARK  110  A    between atoms: _246  and  _248
REMARK  111  A    between atoms: _248  and  _249
REMARK  112  A    between atoms: _248  and  _251
REMARK  113  A    between atoms: _251  and  _252
REMARK  114  A    between atoms: _255  and  _257
REMARK  115  A    between atoms: _257  and  _258
REMARK  116  A    between atoms: _257  and  _260
REMARK  117  A    between atoms: _260  and  _261
REMARK  118  A    between atoms: _266  and  _268
REMARK  119  A    between atoms: _268  and  _269
REMARK  120  A    between atoms: _268  and  _271
REMARK  121  A    between atoms: _271  and  _272
REMARK  122  A    between atoms: _277  and  _279
REMARK  123  A    between atoms: _279  and  _280
REMARK  124  A    between atoms: _279  and  _282
REMARK  125  A    between atoms: _282  and  _283
REMARK  126  A    between atoms: _286  and  _288
REMARK  127  A    between atoms: _288  and  _289
REMARK  128  A    between atoms: _291  and  _293
REMARK  129  A    between atoms: _293  and  _294
REMARK  130  A    between atoms: _293  and  _296
REMARK  131  A    between atoms: _296  and  _297
REMARK  132  A    between atoms: _300  and  _302
REMARK  133  A    between atoms: _302  and  _303
REMARK  134  A    between atoms: _302  and  _305
REMARK  135  A    between atoms: _305  and  _306
REMARK  136  A    between atoms: _309  and  _311
REMARK  137  A    between atoms: _311  and  _312
REMARK  138  A    between atoms: _315  and  _317
REMARK  139  A    between atoms: _317  and  _318
REMARK  140  A    between atoms: _320  and  _322
REMARK  141  A    between atoms: _322  and  _323
REMARK  142  A    between atoms: _322  and  _325
REMARK  143  A    between atoms: _325  and  _326
REMARK  144  A    between atoms: _332  and  _334
REMARK  145  A    between atoms: _334  and  _335
REMARK  146  A    between atoms: _337  and  _339
REMARK  147  A    between atoms: _339  and  _340
REMARK  148  A    between atoms: _339  and  _342
REMARK  149  A    between atoms: _345  and  _347
REMARK  150  A    between atoms: _347  and  _348
REMARK  151  A    between atoms: _350  and  _352
REMARK  152  A    between atoms: _352  and  _353
REMARK  153  A    between atoms: _352  and  _355
REMARK  154  A    between atoms: _355  and  _356
REMARK  155  A    between atoms: _362  and  _364
REMARK  156  A    between atoms: _364  and  _365
REMARK  157  A    between atoms: _364  and  _367
REMARK  158  A    between atoms: _367  and  _368
REMARK  159  A    between atoms: _373  and  _374
REMARK  160  A    between atoms: _376  and  _378
REMARK  161  A    between atoms: _378  and  _379
REMARK  162  A    between atoms: _382  and  _384
REMARK  163  A    between atoms: _384  and  _385
REMARK  164  A    between atoms: _384  and  _387
REMARK  165  A    between atoms: _390  and  _392
REMARK  166  A    between atoms: _392  and  _393
REMARK  167  A    between atoms: _392  and  _395
REMARK  168  A    between atoms: _398  and  _400
REMARK  169  A    between atoms: _400  and  _401
REMARK  170  A    between atoms: _400  and  _403
REMARK  171  A    between atoms: _403  and  _404
REMARK  172  A    between atoms: _407  and  _409
REMARK  173  A    between atoms: _409  and  _410
REMARK  174  A    between atoms: _409  and  _412
REMARK  175  A    between atoms: _412  and  _413
REMARK  176  A    between atoms: _416  and  _418
REMARK  177  A    between atoms: _418  and  _419
REMARK  178  A    between atoms: _418  and  _421
REMARK  179  A    between atoms: _421  and  _422
REMARK  180  A    between atoms: _422  and  _423
REMARK  181  A    between atoms: _423  and  _424
REMARK  182  A    between atoms: _424  and  _425
REMARK  183  A    between atoms: _429  and  _431
REMARK  184  A    between atoms: _431  and  _432
REMARK  185  A    between atoms: _431  and  _434
REMARK  186  A    between atoms: _434  and  _435
REMARK  187  A    between atoms: _440  and  _442
REMARK  188  A    between atoms: _442  and  _443
REMARK  189  A    between atoms: _445  and  _447
REMARK  190  A    between atoms: _447  and  _448
REMARK  191  A    between atoms: _447  and  _450
REMARK  192  A    between atoms: _450  and  _451
REMARK  193  A    between atoms: _454  and  _456
REMARK  194  A    between atoms: _456  and  _457
REMARK  195  A    between atoms: _456  and  _459
REMARK  196  A    between atoms: _459  and  _460
REMARK  197  A    between atoms: _460  and  _461
REMARK  198  A    between atoms: _461  and  _462
REMARK  199  A    between atoms: _462  and  _463
REMARK  200  A    between atoms: _467  and  _469
REMARK  201  A    between atoms: _469  and  _470
REMARK  202  A    between atoms: _469  and  _472
REMARK  203  A    between atoms: _475  and  _477
REMARK  204  A    between atoms: _477  and  _478
REMARK  205  A    between atoms: _477  and  _480
REMARK  206  A    between atoms: _480  and  _481
REMARK  207  A    between atoms: _484  and  _486
REMARK  208  A    between atoms: _486  and  _487
REMARK  209  A    between atoms: _486  and  _489
REMARK  210  A    between atoms: _489  and  _490
REMARK  211  A    between atoms: _493  and  _495
REMARK  212  A    between atoms: _495  and  _496
REMARK  213  A    between atoms: _495  and  _498
REMARK  214  A    between atoms: _498  and  _499
REMARK  215  A    between atoms: _502  and  _504
REMARK  216  A    between atoms: _504  and  _505
REMARK  217  A    between atoms: _504  and  _507
REMARK  218  A    between atoms: _507  and  _508
REMARK  219  A    between atoms: _508  and  _509
REMARK  220  A    between atoms: _509  and  _510
REMARK  221  A    between atoms: _510  and  _511
REMARK  222  A    between atoms: _515  and  _517
REMARK  223  A    between atoms: _517  and  _518
REMARK  224  A    between atoms: _517  and  _520
REMARK  225  A    between atoms: _520  and  _521
REMARK  226  A    between atoms: _526  and  _527
REMARK                            x       y       z     vdW  Elec       q    Type
REMARK                         _______ _______ _______ _____ _____    ______ ____
ROOT
ATOM      1  O   HOH     1      33.448   5.261  14.386  0.00  0.00    +0.000 OA
ENDROOT
TORSDOF 0
REMARK  Name = ../refined-set-2016/2uwd/2uwd_pocket.pdb
REMARK  226 active torsions:
REMARK  status: ('A' for Active; 'I' for Inactive)
REMARK    1  A    between atoms: _1  and  _3
REMARK    2  A    between atoms: _3  and  _4
REMARK    3  A    between atoms: _3  and  _6
REMARK    4  A    between atoms: _6  and  _7
REMARK    5  A    between atoms: _13  and  _15
REMARK    6  A    between atoms: _15  and  _16
REMARK    7  A    between atoms: _15  and  _18
REMARK    8  A    between atoms: _18  and  _19
REMARK    9  A    between atoms: _22  and  _24
REMARK   10  A    between atoms: _24  and  _25
REMARK   11  A    between atoms: _24  and  _27
REMARK   12  A    between atoms: _27  and  _28
REMARK   13  A    between atoms: _28  and  _29
REMARK   14  A    between atoms: _32  and  _34
REMARK   15  A    between atoms: _34  and  _35
REMARK   16  A    between atoms: _34  and  _37
REMARK   17  A    between atoms: _37  and  _38
REMARK   18  A    between atoms: _41  and  _43
REMARK   19  A    between atoms: _43  and  _44
REMARK   20  A    between atoms: _43  and  _46
REMARK   21  A    between atoms: _46  and  _47
REMARK   22  A    between atoms: _50  and  _52
REMARK   23  A    between atoms: _52  and  _53
REMARK   24  A    between atoms: _52  and  _55
REMARK   25  A    between atoms: _55  and  _56
REMARK   26  A    between atoms: _58  and  _60
REMARK   27  A    between atoms: _60  and  _61
REMARK   28  A    between atoms: _60  and  _63
REMARK   29  A    between atoms: _63  and  _64
REMARK   30  A    between atoms: _69  and  _71
REMARK   31  A    between atoms: _71  and  _72
REMARK   32  A    between atoms: _71  and  _74
REMARK   33  A    between atoms: _74  and  _75
REMARK   34  A    between atoms: _77  and  _79
REMARK   35  A    between atoms: _79  and  _80
REMARK   36  A    between atoms: _79  and  _82
REMARK   37  A    between atoms: _82  and  _83
REMARK   38  A    between atoms: _85  and  _87
REMARK   39  A    between atoms: _87  and  _88
REMARK   40  A    between atoms: _87  and  _90
REMARK   41  A    between atoms: _90  and  _91
REMARK   42  A    between atoms: _94  and  _96
REMARK   43  A    between atoms: _96  and  _97
REMARK   44  A    between atoms: _100  and  _102
REMARK   45  A    between atoms: _102  and  _103
REMARK   46  A    between atoms: _102  and  _105
REMARK   47  A    between atoms: _105  and  _106
REMARK   48  A    between atoms: _109  and  _111
REMARK   49  A    between atoms: _111  and  _112
REMARK   50  A    between atoms: _111  and  _114
REMARK   51  A    between atoms: _114  and  _115
REMARK   52  A    between atoms: _118  and  _120
REMARK   53  A    between atoms: _120  and  _121
REMARK   54  A    between atoms: _120  and  _123
REMARK   55  A    between atoms: _123  and  _124
REMARK   56  A    between atoms: _124  and  _125
REMARK   57  A    between atoms: _125  and  _126
REMARK   58  A    between atoms: _126  and  _127
REMARK   59  A    between atoms: _131  and  _133
REMARK   60  A    between atoms: _133  and  _134
REMARK   61  A    between atoms: _133  and  _136
REMARK   62  A    between atoms: _136  and  _137
REMARK   63  A    between atoms: _140  and  _142
REMARK   64  A    between atoms: _142  and  _143
REMARK   65  A    between atoms: _142  and  _145
REMARK   66  A    between atoms: _145  and  _146
REMARK   67  A    between atoms: _146  and  _147
REMARK   68  A    between atoms: _150  and  _152
REMARK   69  A    between atoms: _152  and  _153
REMARK   70  A    between atoms: _152  and  _155
REMARK   71  A    between atoms: _155  and  _156
REMARK   72  A    between atoms: _159  and  _161
REMARK   73  A    between atoms: _161  and  _162
REMARK   74  A    between atoms: _161  and  _164
REMARK   75  A    between atoms: _164  and  _165
REMARK   76  A    between atoms: _168  and  _170
REMARK   77  A    between atoms: _170  and  _171
REMARK   78  A    between atoms: _170  and  _173
REMARK   79  A    between atoms: _176  and  _178
REMARK   80  A    between atoms: _178  and  _179
REMARK   81  A    between atoms: _178  and  _181
REMARK   82  A    between atoms: _181  and  _182
REMARK   83  A    between atoms: _185  and  _187
REMARK   84  A    between atoms: _187  and  _188
REMARK   85  A    between atoms: _187  and  _190
REMARK   86  A    between atoms: _190  and  _191
REMARK   87  A    between atoms: _194  and  _196
REMARK   88  A    between atoms: _196  and  _197
REMARK   89  A    between atoms: _199  and  _201
REMARK   90  A    between atoms: _201  and  _202
REMARK   91  A    between atoms: _201  and  _204
REMARK   92  A    between atoms: _204  and  _205
REMARK   93  A    between atoms: _208  and  _210
REMARK   94  A    between atoms: _210  and  _211
REMARK   95  A    between atoms: _213  and  _215
REMARK   96  A    between atoms: _215  and  _216
REMARK   97  A    between atoms: _215  and  _218
REMARK   98  A    between atoms: _218  and  _219
REMARK   99  A    between atoms: _219  and  _220
REMARK  100  A    between atoms: _222  and  _224
REMARK  101  A    between atoms: _224  and  _225
REMARK  102  A    between atoms: _224  and  _227
REMARK  103  A    between atoms: _227  and  _228
REMARK  104  A    between atoms: _231  and  _233
REMARK  105  A    between atoms: _233  and  _234
REMARK  106  A    between atoms: _237  and  _239
REMARK  107  A    between atoms: _239  and  _240
REMARK  108  A    between atoms: _239  and  _242
REMARK  109  A    between atoms: _242  and  _243
REMARK  110  A    between atoms: _246  and  _248
REMARK  111  A    between atoms: _248  and  _249
REMARK  112  A    between atoms: _248  and  _251
REMARK  113  A    between atoms: _251  and  _252
REMARK  114  A    between atoms: _255  and  _257
REMARK  115  A    between atoms: _257  and  _258
REMARK  116  A    between atoms: _257  and  _260
REMARK  117  A    between atoms: _260  and  _261
REMARK  118  A    between atoms: _266  and  _268
REMARK  119  A    between atoms: _268  and  _269
REMARK  120  A    between atoms: _268  and  _271
REMARK  121  A    between atoms: _271  and  _272
REMARK  122  A    between atoms: _277  and  _279
REMARK  123  A    between atoms: _279  and  _280
REMARK  124  A    between atoms: _279  and  _282
REMARK  125  A    between atoms: _282  and  _283
REMARK  126  A    between atoms: _286  and  _288
REMARK  127  A    between atoms: _288  and  _289
REMARK  128  A    between atoms: _291  and  _293
REMARK  129  A    between atoms: _293  and  _294
REMARK  130  A    between atoms: _293  and  _296
REMARK  131  A    between atoms: _296  and  _297
REMARK  132  A    between atoms: _300  and  _302
REMARK  133  A    between atoms: _302  and  _303
REMARK  134  A    between atoms: _302  and  _305
REMARK  135  A    between atoms: _305  and  _306
REMARK  136  A    between atoms: _309  and  _311
REMARK  137  A    between atoms: _311  and  _312
REMARK  138  A    between atoms: _315  and  _317
REMARK  139  A    between atoms: _317  and  _318
REMARK  140  A    between atoms: _320  and  _322
REMARK  141  A    between atoms: _322  and  _323
REMARK  142  A    between atoms: _322  and  _325
REMARK  143  A    between atoms: _325  and  _326
REMARK  144  A    between atoms: _332  and  _334
REMARK  145  A    between atoms: _334  and  _335
REMARK  146  A    between atoms: _337  and  _339
REMARK  147  A    between atoms: _339  and  _340
REMARK  148  A    between atoms: _339  and  _342
REMARK  149  A    between atoms: _345  and  _347
REMARK  150  A    between atoms: _347  and  _348
REMARK  151  A    between atoms: _350  and  _352
REMARK  152  A    between atoms: _352  and  _353
REMARK  153  A    between atoms: _352  and  _355
REMARK  154  A    between atoms: _355  and  _356
REMARK  155  A    between atoms: _362  and  _364
REMARK  156  A    between atoms: _364  and  _365
REMARK  157  A    between atoms: _364  and  _367
REMARK  158  A    between atoms: _367  and  _368
REMARK  159  A    between atoms: _373  and  _374
REMARK  160  A    between atoms: _376  and  _378
REMARK  161  A    between atoms: _378  and  _379
REMARK  162  A    between atoms: _382  and  _384
REMARK  163  A    between atoms: _384  and  _385
REMARK  164  A    between atoms: _384  and  _387
REMARK  165  A    between atoms: _390  and  _392
REMARK  166  A    between atoms: _392  and  _393
REMARK  167  A    between atoms: _392  and  _395
REMARK  168  A    between atoms: _398  and  _400
REMARK  169  A    between atoms: _400  and  _401
REMARK  170  A    between atoms: _400  and  _403
REMARK  171  A    between atoms: _403  and  _404
REMARK  172  A    between atoms: _407  and  _409
REMARK  173  A    between atoms: _409  and  _410
REMARK  174  A    between atoms: _409  and  _412
REMARK  175  A    between atoms: _412  and  _413
REMARK  176  A    between atoms: _416  and  _418
REMARK  177  A    between atoms: _418  and  _419
REMARK  178  A    between atoms: _418  and  _421
REMARK  179  A    between atoms: _421  and  _422
REMARK  180  A    between atoms: _422  and  _423
REMARK  181  A    between atoms: _423  and  _424
REMARK  182  A    between atoms: _424  and  _425
REMARK  183  A    between atoms: _429  and  _431
REMARK  184  A    between atoms: _431  and  _432
REMARK  185  A    between atoms: _431  and  _434
REMARK  186  A    between atoms: _434  and  _435
REMARK  187  A    between atoms: _440  and  _442
REMARK  188  A    between atoms: _442  and  _443
REMARK  189  A    between atoms: _445  and  _447
REMARK  190  A    between atoms: _447  and  _448
REMARK  191  A    between atoms: _447  and  _450
REMARK  192  A    between atoms: _450  and  _451
REMARK  193  A    between atoms: _454  and  _456
REMARK  194  A    between atoms: _456  and  _457
REMARK  195  A    between atoms: _456  and  _459
REMARK  196  A    between atoms: _459  and  _460
REMARK  197  A    between atoms: _460  and  _461
REMARK  198  A    between atoms: _461  and  _462
REMARK  199  A    between atoms: _462  and  _463
REMARK  200  A    between atoms: _467  and  _469
REMARK  201  A    between atoms: _469  and  _470
REMARK  202  A    between atoms: _469  and  _472
REMARK  203  A    between atoms: _475  and  _477
REMARK  204  A    between atoms: _477  and  _478
REMARK  205  A    between atoms: _477  and  _480
REMARK  206  A    between atoms: _480  and  _481
REMARK  207  A    between atoms: _484  and  _486
REMARK  208  A    between atoms: _486  and  _487
REMARK  209  A    between atoms: _486  and  _489
REMARK  210  A    between atoms: _489  and  _490
REMARK  211  A    between atoms: _493  and  _495
REMARK  212  A    between atoms: _495  and  _496
REMARK  213  A    between atoms: _495  and  _498
REMARK  214  A    between atoms: _498  and  _499
REMARK  215  A    between atoms: _502  and  _504
REMARK  216  A    between atoms: _504  and  _505
REMARK  217  A    between atoms: _504  and  _507
REMARK  218  A    between atoms: _507  and  _508
REMARK  219  A    between atoms: _508  and  _509
REMARK  220  A    between atoms: _509  and  _510
REMARK  221  A    between atoms: _510  and  _511
REMARK  222  A    between atoms: _515  and  _517
REMARK  223  A    between atoms: _517  and  _518
REMARK  224  A    between atoms: _517  and  _520
REMARK  225  A    between atoms: _520  and  _521
REMARK  226  A    between atoms: _526  and  _527
REMARK                            x       y       z     vdW  Elec       q    Type
REMARK                         _______ _______ _______ _____ _____    ______ ____
ROOT
ATOM      1  O   HOH     1      29.575   1.056  24.600  0.00  0.00    +0.000 OA
ENDROOT
TORSDOF 0
REMARK  Name = ../refined-set-2016/2uwd/2uwd_pocket.pdb
REMARK  226 active torsions:
REMARK  status: ('A' for Active; 'I' for Inactive)
REMARK    1  A    between atoms: _1  and  _3
REMARK    2  A    between atoms: _3  and  _4
REMARK    3  A    between atoms: _3  and  _6
REMARK    4  A    between atoms: _6  and  _7
REMARK    5  A    between atoms: _13  and  _15
REMARK    6  A    between atoms: _15  and  _16
REMARK    7  A    between atoms: _15  and  _18
REMARK    8  A    between atoms: _18  and  _19
REMARK    9  A    between atoms: _22  and  _24
REMARK   10  A    between atoms: _24  and  _25
REMARK   11  A    between atoms: _24  and  _27
REMARK   12  A    between atoms: _27  and  _28
REMARK   13  A    between atoms: _28  and  _29
REMARK   14  A    between atoms: _32  and  _34
REMARK   15  A    between atoms: _34  and  _35
REMARK   16  A    between atoms: _34  and  _37
REMARK   17  A    between atoms: _37  and  _38
REMARK   18  A    between atoms: _41  and  _43
REMARK   19  A    between atoms: _43  and  _44
REMARK   20  A    between atoms: _43  and  _46
REMARK   21  A    between atoms: _46  and  _47
REMARK   22  A    between atoms: _50  and  _52
REMARK   23  A    between atoms: _52  and  _53
REMARK   24  A    between atoms: _52  and  _55
REMARK   25  A    between atoms: _55  and  _56
REMARK   26  A    between atoms: _58  and  _60
REMARK   27  A    between atoms: _60  and  _61
REMARK   28  A    between atoms: _60  and  _63
REMARK   29  A    between atoms: _63  and  _64
REMARK   30  A    between atoms: _69  and  _71
REMARK   31  A    between atoms: _71  and  _72
REMARK   32  A    between atoms: _71  and  _74
REMARK   33  A    between atoms: _74  and  _75
REMARK   34  A    between atoms: _77  and  _79
REMARK   35  A    between atoms: _79  and  _80
REMARK   36  A    between atoms: _79  and  _82
REMARK   37  A    between atoms: _82  and  _83
REMARK   38  A    between atoms: _85  and  _87
REMARK   39  A    between atoms: _87  and  _88
REMARK   40  A    between atoms: _87  and  _90
REMARK   41  A    between atoms: _90  and  _91
REMARK   42  A    between atoms: _94  and  _96
REMARK   43  A    between atoms: _96  and  _97
REMARK   44  A    between atoms: _100  and  _102
REMARK   45  A    between atoms: _102  and  _103
REMARK   46  A    between atoms: _102  and  _105
REMARK   47  A    between atoms: _105  and  _106
REMARK   48  A    between atoms: _109  and  _111
REMARK   49  A    between atoms: _111  and  _112
REMARK   50  A    between atoms: _111  and  _114
REMARK   51  A    between atoms: _114  and  _115
REMARK   52  A    between atoms: _118  and  _120
REMARK   53  A    between atoms: _120  and  _121
REMARK   54  A    between atoms: _120  and  _123
REMARK   55  A    between atoms: _123  and  _124
REMARK   56  A    between atoms: _124  and  _125
REMARK   57  A    between atoms: _125  and  _126
REMARK   58  A    between atoms: _126  and  _127
REMARK   59  A    between atoms: _131  and  _133
REMARK   60  A    between atoms: _133  and  _134
REMARK   61  A    between atoms: _133  and  _136
REMARK   62  A    between atoms: _136  and  _137
REMARK   63  A    between atoms: _140  and  _142
REMARK   64  A    between atoms: _142  and  _143
REMARK   65  A    between atoms: _142  and  _145
REMARK   66  A    between atoms: _145  and  _146
REMARK   67  A    between atoms: _146  and  _147
REMARK   68  A    between atoms: _150  and  _152
REMARK   69  A    between atoms: _152  and  _153
REMARK   70  A    between atoms: _152  and  _155
REMARK   71  A    between atoms: _155  and  _156
REMARK   72  A    between atoms: _159  and  _161
REMARK   73  A    between atoms: _161  and  _162
REMARK   74  A    between atoms: _161  and  _164
REMARK   75  A    between atoms: _164  and  _165
REMARK   76  A    between atoms: _168  and  _170
REMARK   77  A    between atoms: _170  and  _171
REMARK   78  A    between atoms: _170  and  _173
REMARK   79  A    between atoms: _176  and  _178
REMARK   80  A    between atoms: _178  and  _179
REMARK   81  A    between atoms: _178  and  _181
REMARK   82  A    between atoms: _181  and  _182
REMARK   83  A    between atoms: _185  and  _187
REMARK   84  A    between atoms: _187  and  _188
REMARK   85  A    between atoms: _187  and  _190
REMARK   86  A    between atoms: _190  and  _191
REMARK   87  A    between atoms: _194  and  _196
REMARK   88  A    between atoms: _196  and  _197
REMARK   89  A    between atoms: _199  and  _201
REMARK   90  A    between atoms: _201  and  _202
REMARK   91  A    between atoms: _201  and  _204
REMARK   92  A    between atoms: _204  and  _205
REMARK   93  A    between atoms: _208  and  _210
REMARK   94  A    between atoms: _210  and  _211
REMARK   95  A    between atoms: _213  and  _215
REMARK   96  A    between atoms: _215  and  _216
REMARK   97  A    between atoms: _215  and  _218
REMARK   98  A    between atoms: _218  and  _219
REMARK   99  A    between atoms: _219  and  _220
REMARK  100  A    between atoms: _222  and  _224
REMARK  101  A    between atoms: _224  and  _225
REMARK  102  A    between atoms: _224  and  _227
REMARK  103  A    between atoms: _227  and  _228
REMARK  104  A    between atoms: _231  and  _233
REMARK  105  A    between atoms: _233  and  _234
REMARK  106  A    between atoms: _237  and  _239
REMARK  107  A    between atoms: _239  and  _240
REMARK  108  A    between atoms: _239  and  _242
REMARK  109  A    between atoms: _242  and  _243
REMARK  110  A    between atoms: _246  and  _248
REMARK  111  A    between atoms: _248  and  _249
REMARK  112  A    between atoms: _248  and  _251
REMARK  113  A    between atoms: _251  and  _252
REMARK  114  A    between atoms: _255  and  _257
REMARK  115  A    between atoms: _257  and  _258
REMARK  116  A    between atoms: _257  and  _260
REMARK  117  A    between atoms: _260  and  _261
REMARK  118  A    between atoms: _266  and  _268
REMARK  119  A    between atoms: _268  and  _269
REMARK  120  A    between atoms: _268  and  _271
REMARK  121  A    between atoms: _271  and  _272
REMARK  122  A    between atoms: _277  and  _279
REMARK  123  A    between atoms: _279  and  _280
REMARK  124  A    between atoms: _279  and  _282
REMARK  125  A    between atoms: _282  and  _283
REMARK  126  A    between atoms: _286  and  _288
REMARK  127  A    between atoms: _288  and  _289
REMARK  128  A    between atoms: _291  and  _293
REMARK  129  A    between atoms: _293  and  _294
REMARK  130  A    between atoms: _293  and  _296
REMARK  131  A    between atoms: _296  and  _297
REMARK  132  A    between atoms: _300  and  _302
REMARK  133  A    between atoms: _302  and  _303
REMARK  134  A    between atoms: _302  and  _305
REMARK  135  A    between atoms: _305  and  _306
REMARK  136  A    between atoms: _309  and  _311
REMARK  137  A    between atoms: _311  and  _312
REMARK  138  A    between atoms: _315  and  _317
REMARK  139  A    between atoms: _317  and  _318
REMARK  140  A    between atoms: _320  and  _322
REMARK  141  A    between atoms: _322  and  _323
REMARK  142  A    between atoms: _322  and  _325
REMARK  143  A    between atoms: _325  and  _326
REMARK  144  A    between atoms: _332  and  _334
REMARK  145  A    between atoms: _334  and  _335
REMARK  146  A    between atoms: _337  and  _339
REMARK  147  A    between atoms: _339  and  _340
REMARK  148  A    between atoms: _339  and  _342
REMARK  149  A    between atoms: _345  and  _347
REMARK  150  A    between atoms: _347  and  _348
REMARK  151  A    between atoms: _350  and  _352
REMARK  152  A    between atoms: _352  and  _353
REMARK  153  A    between atoms: _352  and  _355
REMARK  154  A    between atoms: _355  and  _356
REMARK  155  A    between atoms: _362  and  _364
REMARK  156  A    between atoms: _364  and  _365
REMARK  157  A    between atoms: _364  and  _367
REMARK  158  A    between atoms: _367  and  _368
REMARK  159  A    between atoms: _373  and  _374
REMARK  160  A    between atoms: _376  and  _378
REMARK  161  A    between atoms: _378  and  _379
REMARK  162  A    between atoms: _382  and  _384
REMARK  163  A    between atoms: _384  and  _385
REMARK  164  A    between atoms: _384  and  _387
REMARK  165  A    between atoms: _390  and  _392
REMARK  166  A    between atoms: _392  and  _393
REMARK  167  A    between atoms: _392  and  _395
REMARK  168  A    between atoms: _398  and  _400
REMARK  169  A    between atoms: _400  and  _401
REMARK  170  A    between atoms: _400  and  _403
REMARK  171  A    between atoms: _403  and  _404
REMARK  172  A    between atoms: _407  and  _409
REMARK  173  A    between atoms: _409  and  _410
REMARK  174  A    between atoms: _409  and  _412
REMARK  175  A    between atoms: _412  and  _413
REMARK  176  A    between atoms: _416  and  _418
REMARK  177  A    between atoms: _418  and  _419
REMARK  178  A    between atoms: _418  and  _421
REMARK  179  A    between atoms: _421  and  _422
REMARK  180  A    between atoms: _422  and  _423
REMARK  181  A    between atoms: _423  and  _424
REMARK  182  A    between atoms: _424  and  _425
REMARK  183  A    between atoms: _429  and  _431
REMARK  184  A    between atoms: _431  and  _432
REMARK  185  A    between atoms: _431  and  _434
REMARK  186  A    between atoms: _434  and  _435
REMARK  187  A    between atoms: _440  and  _442
REMARK  188  A    between atoms: _442  and  _443
REMARK  189  A    between atoms: _445  and  _447
REMARK  190  A    between atoms: _447  and  _448
REMARK  191  A    between atoms: _447  and  _450
REMARK  192  A    between atoms: _450  and  _451
REMARK  193  A    between atoms: _454  and  _456
REMARK  194  A    between atoms: _456  and  _457
REMARK  195  A    between atoms: _456  and  _459
REMARK  196  A    between atoms: _459  and  _460
REMARK  197  A    between atoms: _460  and  _461
REMARK  198  A    between atoms: _461  and  _462
REMARK  199  A    between atoms: _462  and  _463
REMARK  200  A    between atoms: _467  and  _469
REMARK  201  A    between atoms: _469  and  _470
REMARK  202  A    between atoms: _469  and  _472
REMARK  203  A    between atoms: _475  and  _477
REMARK  204  A    between atoms: _477  and  _478
REMARK  205  A    between atoms: _477  and  _480
REMARK  206  A    between atoms: _480  and  _481
REMARK  207  A    between atoms: _484  and  _486
REMARK  208  A    between atoms: _486  and  _487
REMARK  209  A    between atoms: _486  and  _489
REMARK  210  A    between atoms: _489  and  _490
REMARK  211  A    between atoms: _493  and  _495
REMARK  212  A    between atoms: _495  and  _496
REMARK  213  A    between atoms: _495  and  _498
REMARK  214  A    between atoms: _498  and  _499
REMARK  215  A    between atoms: _502  and  _504
REMARK  216  A    between atoms: _504  and  _505
REMARK  217  A    between atoms: _504  and  _507
REMARK  218  A    between atoms: _507  and  _508
REMARK  219  A    between atoms: _508  and  _509
REMARK  220  A    between atoms: _509  and  _510
REMARK  221  A    between atoms: _510  and  _511
REMARK  222  A    between atoms: _515  and  _517
REMARK  223  A    between atoms: _517  and  _518
REMARK  224  A    between atoms: _517  and  _520
REMARK  225  A    between atoms: _520  and  _521
REMARK  226  A    between atoms: _526  and  _527
REMARK                            x       y       z     vdW  Elec       q    Type
REMARK                         _______ _______ _______ _____ _____    ______ ____
ROOT
ATOM      1  O   HOH     1      29.521   2.948  17.787  0.00  0.00    +0.000 OA
ENDROOT
TORSDOF 0
REMARK  Name = ../refined-set-2016/2uwd/2uwd_pocket.pdb
REMARK  226 active torsions:
REMARK  status: ('A' for Active; 'I' for Inactive)
REMARK    1  A    between atoms: _1  and  _3
REMARK    2  A    between atoms: _3  and  _4
REMARK    3  A    between atoms: _3  and  _6
REMARK    4  A    between atoms: _6  and  _7
REMARK    5  A    between atoms: _13  and  _15
REMARK    6  A    between atoms: _15  and  _16
REMARK    7  A    between atoms: _15  and  _18
REMARK    8  A    between atoms: _18  and  _19
REMARK    9  A    between atoms: _22  and  _24
REMARK   10  A    between atoms: _24  and  _25
REMARK   11  A    between atoms: _24  and  _27
REMARK   12  A    between atoms: _27  and  _28
REMARK   13  A    between atoms: _28  and  _29
REMARK   14  A    between atoms: _32  and  _34
REMARK   15  A    between atoms: _34  and  _35
REMARK   16  A    between atoms: _34  and  _37
REMARK   17  A    between atoms: _37  and  _38
REMARK   18  A    between atoms: _41  and  _43
REMARK   19  A    between atoms: _43  and  _44
REMARK   20  A    between atoms: _43  and  _46
REMARK   21  A    between atoms: _46  and  _47
REMARK   22  A    between atoms: _50  and  _52
REMARK   23  A    between atoms: _52  and  _53
REMARK   24  A    between atoms: _52  and  _55
REMARK   25  A    between atoms: _55  and  _56
REMARK   26  A    between atoms: _58  and  _60
REMARK   27  A    between atoms: _60  and  _61
REMARK   28  A    between atoms: _60  and  _63
REMARK   29  A    between atoms: _63  and  _64
REMARK   30  A    between atoms: _69  and  _71
REMARK   31  A    between atoms: _71  and  _72
REMARK   32  A    between atoms: _71  and  _74
REMARK   33  A    between atoms: _74  and  _75
REMARK   34  A    between atoms: _77  and  _79
REMARK   35  A    between atoms: _79  and  _80
REMARK   36  A    between atoms: _79  and  _82
REMARK   37  A    between atoms: _82  and  _83
REMARK   38  A    between atoms: _85  and  _87
REMARK   39  A    between atoms: _87  and  _88
REMARK   40  A    between atoms: _87  and  _90
REMARK   41  A    between atoms: _90  and  _91
REMARK   42  A    between atoms: _94  and  _96
REMARK   43  A    between atoms: _96  and  _97
REMARK   44  A    between atoms: _100  and  _102
REMARK   45  A    between atoms: _102  and  _103
REMARK   46  A    between atoms: _102  and  _105
REMARK   47  A    between atoms: _105  and  _106
REMARK   48  A    between atoms: _109  and  _111
REMARK   49  A    between atoms: _111  and  _112
REMARK   50  A    between atoms: _111  and  _114
REMARK   51  A    between atoms: _114  and  _115
REMARK   52  A    between atoms: _118  and  _120
REMARK   53  A    between atoms: _120  and  _121
REMARK   54  A    between atoms: _120  and  _123
REMARK   55  A    between atoms: _123  and  _124
REMARK   56  A    between atoms: _124  and  _125
REMARK   57  A    between atoms: _125  and  _126
REMARK   58  A    between atoms: _126  and  _127
REMARK   59  A    between atoms: _131  and  _133
REMARK   60  A    between atoms: _133  and  _134
REMARK   61  A    between atoms: _133  and  _136
REMARK   62  A    between atoms: _136  and  _137
REMARK   63  A    between atoms: _140  and  _142
REMARK   64  A    between atoms: _142  and  _143
REMARK   65  A    between atoms: _142  and  _145
REMARK   66  A    between atoms: _145  and  _146
REMARK   67  A    between atoms: _146  and  _147
REMARK   68  A    between atoms: _150  and  _152
REMARK   69  A    between atoms: _152  and  _153
REMARK   70  A    between atoms: _152  and  _155
REMARK   71  A    between atoms: _155  and  _156
REMARK   72  A    between atoms: _159  and  _161
REMARK   73  A    between atoms: _161  and  _162
REMARK   74  A    between atoms: _161  and  _164
REMARK   75  A    between atoms: _164  and  _165
REMARK   76  A    between atoms: _168  and  _170
REMARK   77  A    between atoms: _170  and  _171
REMARK   78  A    between atoms: _170  and  _173
REMARK   79  A    between atoms: _176  and  _178
REMARK   80  A    between atoms: _178  and  _179
REMARK   81  A    between atoms: _178  and  _181
REMARK   82  A    between atoms: _181  and  _182
REMARK   83  A    between atoms: _185  and  _187
REMARK   84  A    between atoms: _187  and  _188
REMARK   85  A    between atoms: _187  and  _190
REMARK   86  A    between atoms: _190  and  _191
REMARK   87  A    between atoms: _194  and  _196
REMARK   88  A    between atoms: _196  and  _197
REMARK   89  A    between atoms: _199  and  _201
REMARK   90  A    between atoms: _201  and  _202
REMARK   91  A    between atoms: _201  and  _204
REMARK   92  A    between atoms: _204  and  _205
REMARK   93  A    between atoms: _208  and  _210
REMARK   94  A    between atoms: _210  and  _211
REMARK   95  A    between atoms: _213  and  _215
REMARK   96  A    between atoms: _215  and  _216
REMARK   97  A    between atoms: _215  and  _218
REMARK   98  A    between atoms: _218  and  _219
REMARK   99  A    between atoms: _219  and  _220
REMARK  100  A    between atoms: _222  and  _224
REMARK  101  A    between atoms: _224  and  _225
REMARK  102  A    between atoms: _224  and  _227
REMARK  103  A    between atoms: _227  and  _228
REMARK  104  A    between atoms: _231  and  _233
REMARK  105  A    between atoms: _233  and  _234
REMARK  106  A    between atoms: _237  and  _239
REMARK  107  A    between atoms: _239  and  _240
REMARK  108  A    between atoms: _239  and  _242
REMARK  109  A    between atoms: _242  and  _243
REMARK  110  A    between atoms: _246  and  _248
REMARK  111  A    between atoms: _248  and  _249
REMARK  112  A    between atoms: _248  and  _251
REMARK  113  A    between atoms: _251  and  _252
REMARK  114  A    between atoms: _255  and  _257
REMARK  115  A    between atoms: _257  and  _258
REMARK  116  A    between atoms: _257  and  _260
REMARK  117  A    between atoms: _260  and  _261
REMARK  118  A    between atoms: _266  and  _268
REMARK  119  A    between atoms: _268  and  _269
REMARK  120  A    between atoms: _268  and  _271
REMARK  121  A    between atoms: _271  and  _272
REMARK  122  A    between atoms: _277  and  _279
REMARK  123  A    between atoms: _279  and  _280
REMARK  124  A    between atoms: _279  and  _282
REMARK  125  A    between atoms: _282  and  _283
REMARK  126  A    between atoms: _286  and  _288
REMARK  127  A    between atoms: _288  and  _289
REMARK  128  A    between atoms: _291  and  _293
REMARK  129  A    between atoms: _293  and  _294
REMARK  130  A    between atoms: _293  and  _296
REMARK  131  A    between atoms: _296  and  _297
REMARK  132  A    between atoms: _300  and  _302
REMARK  133  A    between atoms: _302  and  _303
REMARK  134  A    between atoms: _302  and  _305
REMARK  135  A    between atoms: _305  and  _306
REMARK  136  A    between atoms: _309  and  _311
REMARK  137  A    between atoms: _311  and  _312
REMARK  138  A    between atoms: _315  and  _317
REMARK  139  A    between atoms: _317  and  _318
REMARK  140  A    between atoms: _320  and  _322
REMARK  141  A    between atoms: _322  and  _323
REMARK  142  A    between atoms: _322  and  _325
REMARK  143  A    between atoms: _325  and  _326
REMARK  144  A    between atoms: _332  and  _334
REMARK  145  A    between atoms: _334  and  _335
REMARK  146  A    between atoms: _337  and  _339
REMARK  147  A    between atoms: _339  and  _340
REMARK  148  A    between atoms: _339  and  _342
REMARK  149  A    between atoms: _345  and  _347
REMARK  150  A    between atoms: _347  and  _348
REMARK  151  A    between atoms: _350  and  _352
REMARK  152  A    between atoms: _352  and  _353
REMARK  153  A    between atoms: _352  and  _355
REMARK  154  A    between atoms: _355  and  _356
REMARK  155  A    between atoms: _362  and  _364
REMARK  156  A    between atoms: _364  and  _365
REMARK  157  A    between atoms: _364  and  _367
REMARK  158  A    between atoms: _367  and  _368
REMARK  159  A    between atoms: _373  and  _374
REMARK  160  A    between atoms: _376  and  _378
REMARK  161  A    between atoms: _378  and  _379
REMARK  162  A    between atoms: _382  and  _384
REMARK  163  A    between atoms: _384  and  _385
REMARK  164  A    between atoms: _384  and  _387
REMARK  165  A    between atoms: _390  and  _392
REMARK  166  A    between atoms: _392  and  _393
REMARK  167  A    between atoms: _392  and  _395
REMARK  168  A    between atoms: _398  and  _400
REMARK  169  A    between atoms: _400  and  _401
REMARK  170  A    between atoms: _400  and  _403
REMARK  171  A    between atoms: _403  and  _404
REMARK  172  A    between atoms: _407  and  _409
REMARK  173  A    between atoms: _409  and  _410
REMARK  174  A    between atoms: _409  and  _412
REMARK  175  A    between atoms: _412  and  _413
REMARK  176  A    between atoms: _416  and  _418
REMARK  177  A    between atoms: _418  and  _419
REMARK  178  A    between atoms: _418  and  _421
REMARK  179  A    between atoms: _421  and  _422
REMARK  180  A    between atoms: _422  and  _423
REMARK  181  A    between atoms: _423  and  _424
REMARK  182  A    between atoms: _424  and  _425
REMARK  183  A    between atoms: _429  and  _431
REMARK  184  A    between atoms: _431  and  _432
REMARK  185  A    between atoms: _431  and  _434
REMARK  186  A    between atoms: _434  and  _435
REMARK  187  A    between atoms: _440  and  _442
REMARK  188  A    between atoms: _442  and  _443
REMARK  189  A    between atoms: _445  and  _447
REMARK  190  A    between atoms: _447  and  _448
REMARK  191  A    between atoms: _447  and  _450
REMARK  192  A    between atoms: _450  and  _451
REMARK  193  A    between atoms: _454  and  _456
REMARK  194  A    between atoms: _456  and  _457
REMARK  195  A    between atoms: _456  and  _459
REMARK  196  A    between atoms: _459  and  _460
REMARK  197  A    between atoms: _460  and  _461
REMARK  198  A    between atoms: _461  and  _462
REMARK  199  A    between atoms: _462  and  _463
REMARK  200  A    between atoms: _467  and  _469
REMARK  201  A    between atoms: _469  and  _470
REMARK  202  A    between atoms: _469  and  _472
REMARK  203  A    between atoms: _475  and  _477
REMARK  204  A    between atoms: _477  and  _478
REMARK  205  A    between atoms: _477  and  _480
REMARK  206  A    between atoms: _480  and  _481
REMARK  207  A    between atoms: _484  and  _486
REMARK  208  A    between atoms: _486  and  _487
REMARK  209  A    between atoms: _486  and  _489
REMARK  210  A    between atoms: _489  and  _490
REMARK  211  A    between atoms: _493  and  _495
REMARK  212  A    between atoms: _495  and  _496
REMARK  213  A    between atoms: _495  and  _498
REMARK  214  A    between atoms: _498  and  _499
REMARK  215  A    between atoms: _502  and  _504
REMARK  216  A    between atoms: _504  and  _505
REMARK  217  A    between atoms: _504  and  _507
REMARK  218  A    between atoms: _507  and  _508
REMARK  219  A    between atoms: _508  and  _509
REMARK  220  A    between atoms: _509  and  _510
REMARK  221  A    between atoms: _510  and  _511
REMARK  222  A    between atoms: _515  and  _517
REMARK  223  A    between atoms: _517  and  _518
REMARK  224  A    between atoms: _517  and  _520
REMARK  225  A    between atoms: _520  and  _521
REMARK  226  A    between atoms: _526  and  _527
REMARK                            x       y       z     vdW  Elec       q    Type
REMARK                         _______ _______ _______ _____ _____    ______ ____
ROOT
ATOM      1  O   HOH     1      33.099   3.030  23.021  0.00  0.00    +0.000 OA
ENDROOT
TORSDOF 0
REMARK  Name = ../refined-set-2016/2uwd/2uwd_pocket.pdb
REMARK  226 active torsions:
REMARK  status: ('A' for Active; 'I' for Inactive)
REMARK    1  A    between atoms: _1  and  _3
REMARK    2  A    between atoms: _3  and  _4
REMARK    3  A    between atoms: _3  and  _6
REMARK    4  A    between atoms: _6  and  _7
REMARK    5  A    between atoms: _13  and  _15
REMARK    6  A    between atoms: _15  and  _16
REMARK    7  A    between atoms: _15  and  _18
REMARK    8  A    between atoms: _18  and  _19
REMARK    9  A    between atoms: _22  and  _24
REMARK   10  A    between atoms: _24  and  _25
REMARK   11  A    between atoms: _24  and  _27
REMARK   12  A    between atoms: _27  and  _28
REMARK   13  A    between atoms: _28  and  _29
REMARK   14  A    between atoms: _32  and  _34
REMARK   15  A    between atoms: _34  and  _35
REMARK   16  A    between atoms: _34  and  _37
REMARK   17  A    between atoms: _37  and  _38
REMARK   18  A    between atoms: _41  and  _43
REMARK   19  A    between atoms: _43  and  _44
REMARK   20  A    between atoms: _43  and  _46
REMARK   21  A    between atoms: _46  and  _47
REMARK   22  A    between atoms: _50  and  _52
REMARK   23  A    between atoms: _52  and  _53
REMARK   24  A    between atoms: _52  and  _55
REMARK   25  A    between atoms: _55  and  _56
REMARK   26  A    between atoms: _58  and  _60
REMARK   27  A    between atoms: _60  and  _61
REMARK   28  A    between atoms: _60  and  _63
REMARK   29  A    between atoms: _63  and  _64
REMARK   30  A    between atoms: _69  and  _71
REMARK   31  A    between atoms: _71  and  _72
REMARK   32  A    between atoms: _71  and  _74
REMARK   33  A    between atoms: _74  and  _75
REMARK   34  A    between atoms: _77  and  _79
REMARK   35  A    between atoms: _79  and  _80
REMARK   36  A    between atoms: _79  and  _82
REMARK   37  A    between atoms: _82  and  _83
REMARK   38  A    between atoms: _85  and  _87
REMARK   39  A    between atoms: _87  and  _88
REMARK   40  A    between atoms: _87  and  _90
REMARK   41  A    between atoms: _90  and  _91
REMARK   42  A    between atoms: _94  and  _96
REMARK   43  A    between atoms: _96  and  _97
REMARK   44  A    between atoms: _100  and  _102
REMARK   45  A    between atoms: _102  and  _103
REMARK   46  A    between atoms: _102  and  _105
REMARK   47  A    between atoms: _105  and  _106
REMARK   48  A    between atoms: _109  and  _111
REMARK   49  A    between atoms: _111  and  _112
REMARK   50  A    between atoms: _111  and  _114
REMARK   51  A    between atoms: _114  and  _115
REMARK   52  A    between atoms: _118  and  _120
REMARK   53  A    between atoms: _120  and  _121
REMARK   54  A    between atoms: _120  and  _123
REMARK   55  A    between atoms: _123  and  _124
REMARK   56  A    between atoms: _124  and  _125
REMARK   57  A    between atoms: _125  and  _126
REMARK   58  A    between atoms: _126  and  _127
REMARK   59  A    between atoms: _131  and  _133
REMARK   60  A    between atoms: _133  and  _134
REMARK   61  A    between atoms: _133  and  _136
REMARK   62  A    between atoms: _136  and  _137
REMARK   63  A    between atoms: _140  and  _142
REMARK   64  A    between atoms: _142  and  _143
REMARK   65  A    between atoms: _142  and  _145
REMARK   66  A    between atoms: _145  and  _146
REMARK   67  A    between atoms: _146  and  _147
REMARK   68  A    between atoms: _150  and  _152
REMARK   69  A    between atoms: _152  and  _153
REMARK   70  A    between atoms: _152  and  _155
REMARK   71  A    between atoms: _155  and  _156
REMARK   72  A    between atoms: _159  and  _161
REMARK   73  A    between atoms: _161  and  _162
REMARK   74  A    between atoms: _161  and  _164
REMARK   75  A    between atoms: _164  and  _165
REMARK   76  A    between atoms: _168  and  _170
REMARK   77  A    between atoms: _170  and  _171
REMARK   78  A    between atoms: _170  and  _173
REMARK   79  A    between atoms: _176  and  _178
REMARK   80  A    between atoms: _178  and  _179
REMARK   81  A    between atoms: _178  and  _181
REMARK   82  A    between atoms: _181  and  _182
REMARK   83  A    between atoms: _185  and  _187
REMARK   84  A    between atoms: _187  and  _188
REMARK   85  A    between atoms: _187  and  _190
REMARK   86  A    between atoms: _190  and  _191
REMARK   87  A    between atoms: _194  and  _196
REMARK   88  A    between atoms: _196  and  _197
REMARK   89  A    between atoms: _199  and  _201
REMARK   90  A    between atoms: _201  and  _202
REMARK   91  A    between atoms: _201  and  _204
REMARK   92  A    between atoms: _204  and  _205
REMARK   93  A    between atoms: _208  and  _210
REMARK   94  A    between atoms: _210  and  _211
REMARK   95  A    between atoms: _213  and  _215
REMARK   96  A    between atoms: _215  and  _216
REMARK   97  A    between atoms: _215  and  _218
REMARK   98  A    between atoms: _218  and  _219
REMARK   99  A    between atoms: _219  and  _220
REMARK  100  A    between atoms: _222  and  _224
REMARK  101  A    between atoms: _224  and  _225
REMARK  102  A    between atoms: _224  and  _227
REMARK  103  A    between atoms: _227  and  _228
REMARK  104  A    between atoms: _231  and  _233
REMARK  105  A    between atoms: _233  and  _234
REMARK  106  A    between atoms: _237  and  _239
REMARK  107  A    between atoms: _239  and  _240
REMARK  108  A    between atoms: _239  and  _242
REMARK  109  A    between atoms: _242  and  _243
REMARK  110  A    between atoms: _246  and  _248
REMARK  111  A    between atoms: _248  and  _249
REMARK  112  A    between atoms: _248  and  _251
REMARK  113  A    between atoms: _251  and  _252
REMARK  114  A    between atoms: _255  and  _257
REMARK  115  A    between atoms: _257  and  _258
REMARK  116  A    between atoms: _257  and  _260
REMARK  117  A    between atoms: _260  and  _261
REMARK  118  A    between atoms: _266  and  _268
REMARK  119  A    between atoms: _268  and  _269
REMARK  120  A    between atoms: _268  and  _271
REMARK  121  A    between atoms: _271  and  _272
REMARK  122  A    between atoms: _277  and  _279
REMARK  123  A    between atoms: _279  and  _280
REMARK  124  A    between atoms: _279  and  _282
REMARK  125  A    between atoms: _282  and  _283
REMARK  126  A    between atoms: _286  and  _288
REMARK  127  A    between atoms: _288  and  _289
REMARK  128  A    between atoms: _291  and  _293
REMARK  129  A    between atoms: _293  and  _294
REMARK  130  A    between atoms: _293  and  _296
REMARK  131  A    between atoms: _296  and  _297
REMARK  132  A    between atoms: _300  and  _302
REMARK  133  A    between atoms: _302  and  _303
REMARK  134  A    between atoms: _302  and  _305
REMARK  135  A    between atoms: _305  and  _306
REMARK  136  A    between atoms: _309  and  _311
REMARK  137  A    between atoms: _311  and  _312
REMARK  138  A    between atoms: _315  and  _317
REMARK  139  A    between atoms: _317  and  _318
REMARK  140  A    between atoms: _320  and  _322
REMARK  141  A    between atoms: _322  and  _323
REMARK  142  A    between atoms: _322  and  _325
REMARK  143  A    between atoms: _325  and  _326
REMARK  144  A    between atoms: _332  and  _334
REMARK  145  A    between atoms: _334  and  _335
REMARK  146  A    between atoms: _337  and  _339
REMARK  147  A    between atoms: _339  and  _340
REMARK  148  A    between atoms: _339  and  _342
REMARK  149  A    between atoms: _345  and  _347
REMARK  150  A    between atoms: _347  and  _348
REMARK  151  A    between atoms: _350  and  _352
REMARK  152  A    between atoms: _352  and  _353
REMARK  153  A    between atoms: _352  and  _355
REMARK  154  A    between atoms: _355  and  _356
REMARK  155  A    between atoms: _362  and  _364
REMARK  156  A    between atoms: _364  and  _365
REMARK  157  A    between atoms: _364  and  _367
REMARK  158  A    between atoms: _367  and  _368
REMARK  159  A    between atoms: _373  and  _374
REMARK  160  A    between atoms: _376  and  _378
REMARK  161  A    between atoms: _378  and  _379
REMARK  162  A    between atoms: _382  and  _384
REMARK  163  A    between atoms: _384  and  _385
REMARK  164  A    between atoms: _384  and  _387
REMARK  165  A    between atoms: _390  and  _392
REMARK  166  A    between atoms: _392  and  _393
REMARK  167  A    between atoms: _392  and  _395
REMARK  168  A    between atoms: _398  and  _400
REMARK  169  A    between atoms: _400  and  _401
REMARK  170  A    between atoms: _400  and  _403
REMARK  171  A    between atoms: _403  and  _404
REMARK  172  A    between atoms: _407  and  _409
REMARK  173  A    between atoms: _409  and  _410
REMARK  174  A    between atoms: _409  and  _412
REMARK  175  A    between atoms: _412  and  _413
REMARK  176  A    between atoms: _416  and  _418
REMARK  177  A    between atoms: _418  and  _419
REMARK  178  A    between atoms: _418  and  _421
REMARK  179  A    between atoms: _421  and  _422
REMARK  180  A    between atoms: _422  and  _423
REMARK  181  A    between atoms: _423  and  _424
REMARK  182  A    between atoms: _424  and  _425
REMARK  183  A    between atoms: _429  and  _431
REMARK  184  A    between atoms: _431  and  _432
REMARK  185  A    between atoms: _431  and  _434
REMARK  186  A    between atoms: _434  and  _435
REMARK  187  A    between atoms: _440  and  _442
REMARK  188  A    between atoms: _442  and  _443
REMARK  189  A    between atoms: _445  and  _447
REMARK  190  A    between atoms: _447  and  _448
REMARK  191  A    between atoms: _447  and  _450
REMARK  192  A    between atoms: _450  and  _451
REMARK  193  A    between atoms: _454  and  _456
REMARK  194  A    between atoms: _456  and  _457
REMARK  195  A    between atoms: _456  and  _459
REMARK  196  A    between atoms: _459  and  _460
REMARK  197  A    between atoms: _460  and  _461
REMARK  198  A    between atoms: _461  and  _462
REMARK  199  A    between atoms: _462  and  _463
REMARK  200  A    between atoms: _467  and  _469
REMARK  201  A    between atoms: _469  and  _470
REMARK  202  A    between atoms: _469  and  _472
REMARK  203  A    between atoms: _475  and  _477
REMARK  204  A    between atoms: _477  and  _478
REMARK  205  A    between atoms: _477  and  _480
REMARK  206  A    between atoms: _480  and  _481
REMARK  207  A    between atoms: _484  and  _486
REMARK  208  A    between atoms: _486  and  _487
REMARK  209  A    between atoms: _486  and  _489
REMARK  210  A    between atoms: _489  and  _490
REMARK  211  A    between atoms: _493  and  _495
REMARK  212  A    between atoms: _495  and  _496
REMARK  213  A    between atoms: _495  and  _498
REMARK  214  A    between atoms: _498  and  _499
REMARK  215  A    between atoms: _502  and  _504
REMARK  216  A    between atoms: _504  and  _505
REMARK  217  A    between atoms: _504  and  _507
REMARK  218  A    between atoms: _507  and  _508
REMARK  219  A    between atoms: _508  and  _509
REMARK  220  A    between atoms: _509  and  _510
REMARK  221  A    between atoms: _510  and  _511
REMARK  222  A    between atoms: _515  and  _517
REMARK  223  A    between atoms: _517  and  _518
REMARK  224  A    between atoms: _517  and  _520
REMARK  225  A    between atoms: _520  and  _521
REMARK  226  A    between atoms: _526  and  _527
REMARK                            x       y       z     vdW  Elec       q    Type
REMARK                         _______ _______ _______ _____ _____    ______ ____
ROOT
ATOM      1  O   HOH     1      32.427   5.157  18.774  0.00  0.00    +0.000 OA
ENDROOT
TORSDOF 0
REMARK  Name = ../refined-set-2016/2uwd/2uwd_pocket.pdb
REMARK  226 active torsions:
REMARK  status: ('A' for Active; 'I' for Inactive)
REMARK    1  A    between atoms: _1  and  _3
REMARK    2  A    between atoms: _3  and  _4
REMARK    3  A    between atoms: _3  and  _6
REMARK    4  A    between atoms: _6  and  _7
REMARK    5  A    between atoms: _13  and  _15
REMARK    6  A    between atoms: _15  and  _16
REMARK    7  A    between atoms: _15  and  _18
REMARK    8  A    between atoms: _18  and  _19
REMARK    9  A    between atoms: _22  and  _24
REMARK   10  A    between atoms: _24  and  _25
REMARK   11  A    between atoms: _24  and  _27
REMARK   12  A    between atoms: _27  and  _28
REMARK   13  A    between atoms: _28  and  _29
REMARK   14  A    between atoms: _32  and  _34
REMARK   15  A    between atoms: _34  and  _35
REMARK   16  A    between atoms: _34  and  _37
REMARK   17  A    between atoms: _37  and  _38
REMARK   18  A    between atoms: _41  and  _43
REMARK   19  A    between atoms: _43  and  _44
REMARK   20  A    between atoms: _43  and  _46
REMARK   21  A    between atoms: _46  and  _47
REMARK   22  A    between atoms: _50  and  _52
REMARK   23  A    between atoms: _52  and  _53
REMARK   24  A    between atoms: _52  and  _55
REMARK   25  A    between atoms: _55  and  _56
REMARK   26  A    between atoms: _58  and  _60
REMARK   27  A    between atoms: _60  and  _61
REMARK   28  A    between atoms: _60  and  _63
REMARK   29  A    between atoms: _63  and  _64
REMARK   30  A    between atoms: _69  and  _71
REMARK   31  A    between atoms: _71  and  _72
REMARK   32  A    between atoms: _71  and  _74
REMARK   33  A    between atoms: _74  and  _75
REMARK   34  A    between atoms: _77  and  _79
REMARK   35  A    between atoms: _79  and  _80
REMARK   36  A    between atoms: _79  and  _82
REMARK   37  A    between atoms: _82  and  _83
REMARK   38  A    between atoms: _85  and  _87
REMARK   39  A    between atoms: _87  and  _88
REMARK   40  A    between atoms: _87  and  _90
REMARK   41  A    between atoms: _90  and  _91
REMARK   42  A    between atoms: _94  and  _96
REMARK   43  A    between atoms: _96  and  _97
REMARK   44  A    between atoms: _100  and  _102
REMARK   45  A    between atoms: _102  and  _103
REMARK   46  A    between atoms: _102  and  _105
REMARK   47  A    between atoms: _105  and  _106
REMARK   48  A    between atoms: _109  and  _111
REMARK   49  A    between atoms: _111  and  _112
REMARK   50  A    between atoms: _111  and  _114
REMARK   51  A    between atoms: _114  and  _115
REMARK   52  A    between atoms: _118  and  _120
REMARK   53  A    between atoms: _120  and  _121
REMARK   54  A    between atoms: _120  and  _123
REMARK   55  A    between atoms: _123  and  _124
REMARK   56  A    between atoms: _124  and  _125
REMARK   57  A    between atoms: _125  and  _126
REMARK   58  A    between atoms: _126  and  _127
REMARK   59  A    between atoms: _131  and  _133
REMARK   60  A    between atoms: _133  and  _134
REMARK   61  A    between atoms: _133  and  _136
REMARK   62  A    between atoms: _136  and  _137
REMARK   63  A    between atoms: _140  and  _142
REMARK   64  A    between atoms: _142  and  _143
REMARK   65  A    between atoms: _142  and  _145
REMARK   66  A    between atoms: _145  and  _146
REMARK   67  A    between atoms: _146  and  _147
REMARK   68  A    between atoms: _150  and  _152
REMARK   69  A    between atoms: _152  and  _153
REMARK   70  A    between atoms: _152  and  _155
REMARK   71  A    between atoms: _155  and  _156
REMARK   72  A    between atoms: _159  and  _161
REMARK   73  A    between atoms: _161  and  _162
REMARK   74  A    between atoms: _161  and  _164
REMARK   75  A    between atoms: _164  and  _165
REMARK   76  A    between atoms: _168  and  _170
REMARK   77  A    between atoms: _170  and  _171
REMARK   78  A    between atoms: _170  and  _173
REMARK   79  A    between atoms: _176  and  _178
REMARK   80  A    between atoms: _178  and  _179
REMARK   81  A    between atoms: _178  and  _181
REMARK   82  A    between atoms: _181  and  _182
REMARK   83  A    between atoms: _185  and  _187
REMARK   84  A    between atoms: _187  and  _188
REMARK   85  A    between atoms: _187  and  _190
REMARK   86  A    between atoms: _190  and  _191
REMARK   87  A    between atoms: _194  and  _196
REMARK   88  A    between atoms: _196  and  _197
REMARK   89  A    between atoms: _199  and  _201
REMARK   90  A    between atoms: _201  and  _202
REMARK   91  A    between atoms: _201  and  _204
REMARK   92  A    between atoms: _204  and  _205
REMARK   93  A    between atoms: _208  and  _210
REMARK   94  A    between atoms: _210  and  _211
REMARK   95  A    between atoms: _213  and  _215
REMARK   96  A    between atoms: _215  and  _216
REMARK   97  A    between atoms: _215  and  _218
REMARK   98  A    between atoms: _218  and  _219
REMARK   99  A    between atoms: _219  and  _220
REMARK  100  A    between atoms: _222  and  _224
REMARK  101  A    between atoms: _224  and  _225
REMARK  102  A    between atoms: _224  and  _227
REMARK  103  A    between atoms: _227  and  _228
REMARK  104  A    between atoms: _231  and  _233
REMARK  105  A    between atoms: _233  and  _234
REMARK  106  A    between atoms: _237  and  _239
REMARK  107  A    between atoms: _239  and  _240
REMARK  108  A    between atoms: _239  and  _242
REMARK  109  A    between atoms: _242  and  _243
REMARK  110  A    between atoms: _246  and  _248
REMARK  111  A    between atoms: _248  and  _249
REMARK  112  A    between atoms: _248  and  _251
REMARK  113  A    between atoms: _251  and  _252
REMARK  114  A    between atoms: _255  and  _257
REMARK  115  A    between atoms: _257  and  _258
REMARK  116  A    between atoms: _257  and  _260
REMARK  117  A    between atoms: _260  and  _261
REMARK  118  A    between atoms: _266  and  _268
REMARK  119  A    between atoms: _268  and  _269
REMARK  120  A    between atoms: _268  and  _271
REMARK  121  A    between atoms: _271  and  _272
REMARK  122  A    between atoms: _277  and  _279
REMARK  123  A    between atoms: _279  and  _280
REMARK  124  A    between atoms: _279  and  _282
REMARK  125  A    between atoms: _282  and  _283
REMARK  126  A    between atoms: _286  and  _288
REMARK  127  A    between atoms: _288  and  _289
REMARK  128  A    between atoms: _291  and  _293
REMARK  129  A    between atoms: _293  and  _294
REMARK  130  A    between atoms: _293  and  _296
REMARK  131  A    between atoms: _296  and  _297
REMARK  132  A    between atoms: _300  and  _302
REMARK  133  A    between atoms: _302  and  _303
REMARK  134  A    between atoms: _302  and  _305
REMARK  135  A    between atoms: _305  and  _306
REMARK  136  A    between atoms: _309  and  _311
REMARK  137  A    between atoms: _311  and  _312
REMARK  138  A    between atoms: _315  and  _317
REMARK  139  A    between atoms: _317  and  _318
REMARK  140  A    between atoms: _320  and  _322
REMARK  141  A    between atoms: _322  and  _323
REMARK  142  A    between atoms: _322  and  _325
REMARK  143  A    between atoms: _325  and  _326
REMARK  144  A    between atoms: _332  and  _334
REMARK  145  A    between atoms: _334  and  _335
REMARK  146  A    between atoms: _337  and  _339
REMARK  147  A    between atoms: _339  and  _340
REMARK  148  A    between atoms: _339  and  _342
REMARK  149  A    between atoms: _345  and  _347
REMARK  150  A    between atoms: _347  and  _348
REMARK  151  A    between atoms: _350  and  _352
REMARK  152  A    between atoms: _352  and  _353
REMARK  153  A    between atoms: _352  and  _355
REMARK  154  A    between atoms: _355  and  _356
REMARK  155  A    between atoms: _362  and  _364
REMARK  156  A    between atoms: _364  and  _365
REMARK  157  A    between atoms: _364  and  _367
REMARK  158  A    between atoms: _367  and  _368
REMARK  159  A    between atoms: _373  and  _374
REMARK  160  A    between atoms: _376  and  _378
REMARK  161  A    between atoms: _378  and  _379
REMARK  162  A    between atoms: _382  and  _384
REMARK  163  A    between atoms: _384  and  _385
REMARK  164  A    between atoms: _384  and  _387
REMARK  165  A    between atoms: _390  and  _392
REMARK  166  A    between atoms: _392  and  _393
REMARK  167  A    between atoms: _392  and  _395
REMARK  168  A    between atoms: _398  and  _400
REMARK  169  A    between atoms: _400  and  _401
REMARK  170  A    between atoms: _400  and  _403
REMARK  171  A    between atoms: _403  and  _404
REMARK  172  A    between atoms: _407  and  _409
REMARK  173  A    between atoms: _409  and  _410
REMARK  174  A    between atoms: _409  and  _412
REMARK  175  A    between atoms: _412  and  _413
REMARK  176  A    between atoms: _416  and  _418
REMARK  177  A    between atoms: _418  and  _419
REMARK  178  A    between atoms: _418  and  _421
REMARK  179  A    between atoms: _421  and  _422
REMARK  180  A    between atoms: _422  and  _423
REMARK  181  A    between atoms: _423  and  _424
REMARK  182  A    between atoms: _424  and  _425
REMARK  183  A    between atoms: _429  and  _431
REMARK  184  A    between atoms: _431  and  _432
REMARK  185  A    between atoms: _431  and  _434
REMARK  186  A    between atoms: _434  and  _435
REMARK  187  A    between atoms: _440  and  _442
REMARK  188  A    between atoms: _442  and  _443
REMARK  189  A    between atoms: _445  and  _447
REMARK  190  A    between atoms: _447  and  _448
REMARK  191  A    between atoms: _447  and  _450
REMARK  192  A    between atoms: _450  and  _451
REMARK  193  A    between atoms: _454  and  _456
REMARK  194  A    between atoms: _456  and  _457
REMARK  195  A    between atoms: _456  and  _459
REMARK  196  A    between atoms: _459  and  _460
REMARK  197  A    between atoms: _460  and  _461
REMARK  198  A    between atoms: _461  and  _462
REMARK  199  A    between atoms: _462  and  _463
REMARK  200  A    between atoms: _467  and  _469
REMARK  201  A    between atoms: _469  and  _470
REMARK  202  A    between atoms: _469  and  _472
REMARK  203  A    between atoms: _475  and  _477
REMARK  204  A    between atoms: _477  and  _478
REMARK  205  A    between atoms: _477  and  _480
REMARK  206  A    between atoms: _480  and  _481
REMARK  207  A    between atoms: _484  and  _486
REMARK  208  A    between atoms: _486  and  _487
REMARK  209  A    between atoms: _486  and  _489
REMARK  210  A    between atoms: _489  and  _490
REMARK  211  A    between atoms: _493  and  _495
REMARK  212  A    between atoms: _495  and  _496
REMARK  213  A    between atoms: _495  and  _498
REMARK  214  A    between atoms: _498  and  _499
REMARK  215  A    between atoms: _502  and  _504
REMARK  216  A    between atoms: _504  and  _505
REMARK  217  A    between atoms: _504  and  _507
REMARK  218  A    between atoms: _507  and  _508
REMARK  219  A    between atoms: _508  and  _509
REMARK  220  A    between atoms: _509  and  _510
REMARK  221  A    between atoms: _510  and  _511
REMARK  222  A    between atoms: _515  and  _517
REMARK  223  A    between atoms: _517  and  _518
REMARK  224  A    between atoms: _517  and  _520
REMARK  225  A    between atoms: _520  and  _521
REMARK  226  A    between atoms: _526  and  _527
REMARK                            x       y       z     vdW  Elec       q    Type
REMARK                         _______ _______ _______ _____ _____    ______ ____
ROOT
ATOM      1  O   HOH     1      27.791  -0.384  30.848  0.00  0.00    +0.000 OA
ENDROOT
TORSDOF 0
REMARK  Name = ../refined-set-2016/2uwd/2uwd_pocket.pdb
REMARK  226 active torsions:
REMARK  status: ('A' for Active; 'I' for Inactive)
REMARK    1  A    between atoms: _1  and  _3
REMARK    2  A    between atoms: _3  and  _4
REMARK    3  A    between atoms: _3  and  _6
REMARK    4  A    between atoms: _6  and  _7
REMARK    5  A    between atoms: _13  and  _15
REMARK    6  A    between atoms: _15  and  _16
REMARK    7  A    between atoms: _15  and  _18
REMARK    8  A    between atoms: _18  and  _19
REMARK    9  A    between atoms: _22  and  _24
REMARK   10  A    between atoms: _24  and  _25
REMARK   11  A    between atoms: _24  and  _27
REMARK   12  A    between atoms: _27  and  _28
REMARK   13  A    between atoms: _28  and  _29
REMARK   14  A    between atoms: _32  and  _34
REMARK   15  A    between atoms: _34  and  _35
REMARK   16  A    between atoms: _34  and  _37
REMARK   17  A    between atoms: _37  and  _38
REMARK   18  A    between atoms: _41  and  _43
REMARK   19  A    between atoms: _43  and  _44
REMARK   20  A    between atoms: _43  and  _46
REMARK   21  A    between atoms: _46  and  _47
REMARK   22  A    between atoms: _50  and  _52
REMARK   23  A    between atoms: _52  and  _53
REMARK   24  A    between atoms: _52  and  _55
REMARK   25  A    between atoms: _55  and  _56
REMARK   26  A    between atoms: _58  and  _60
REMARK   27  A    between atoms: _60  and  _61
REMARK   28  A    between atoms: _60  and  _63
REMARK   29  A    between atoms: _63  and  _64
REMARK   30  A    between atoms: _69  and  _71
REMARK   31  A    between atoms: _71  and  _72
REMARK   32  A    between atoms: _71  and  _74
REMARK   33  A    between atoms: _74  and  _75
REMARK   34  A    between atoms: _77  and  _79
REMARK   35  A    between atoms: _79  and  _80
REMARK   36  A    between atoms: _79  and  _82
REMARK   37  A    between atoms: _82  and  _83
REMARK   38  A    between atoms: _85  and  _87
REMARK   39  A    between atoms: _87  and  _88
REMARK   40  A    between atoms: _87  and  _90
REMARK   41  A    between atoms: _90  and  _91
REMARK   42  A    between atoms: _94  and  _96
REMARK   43  A    between atoms: _96  and  _97
REMARK   44  A    between atoms: _100  and  _102
REMARK   45  A    between atoms: _102  and  _103
REMARK   46  A    between atoms: _102  and  _105
REMARK   47  A    between atoms: _105  and  _106
REMARK   48  A    between atoms: _109  and  _111
REMARK   49  A    between atoms: _111  and  _112
REMARK   50  A    between atoms: _111  and  _114
REMARK   51  A    between atoms: _114  and  _115
REMARK   52  A    between atoms: _118  and  _120
REMARK   53  A    between atoms: _120  and  _121
REMARK   54  A    between atoms: _120  and  _123
REMARK   55  A    between atoms: _123  and  _124
REMARK   56  A    between atoms: _124  and  _125
REMARK   57  A    between atoms: _125  and  _126
REMARK   58  A    between atoms: _126  and  _127
REMARK   59  A    between atoms: _131  and  _133
REMARK   60  A    between atoms: _133  and  _134
REMARK   61  A    between atoms: _133  and  _136
REMARK   62  A    between atoms: _136  and  _137
REMARK   63  A    between atoms: _140  and  _142
REMARK   64  A    between atoms: _142  and  _143
REMARK   65  A    between atoms: _142  and  _145
REMARK   66  A    between atoms: _145  and  _146
REMARK   67  A    between atoms: _146  and  _147
REMARK   68  A    between atoms: _150  and  _152
REMARK   69  A    between atoms: _152  and  _153
REMARK   70  A    between atoms: _152  and  _155
REMARK   71  A    between atoms: _155  and  _156
REMARK   72  A    between atoms: _159  and  _161
REMARK   73  A    between atoms: _161  and  _162
REMARK   74  A    between atoms: _161  and  _164
REMARK   75  A    between atoms: _164  and  _165
REMARK   76  A    between atoms: _168  and  _170
REMARK   77  A    between atoms: _170  and  _171
REMARK   78  A    between atoms: _170  and  _173
REMARK   79  A    between atoms: _176  and  _178
REMARK   80  A    between atoms: _178  and  _179
REMARK   81  A    between atoms: _178  and  _181
REMARK   82  A    between atoms: _181  and  _182
REMARK   83  A    between atoms: _185  and  _187
REMARK   84  A    between atoms: _187  and  _188
REMARK   85  A    between atoms: _187  and  _190
REMARK   86  A    between atoms: _190  and  _191
REMARK   87  A    between atoms: _194  and  _196
REMARK   88  A    between atoms: _196  and  _197
REMARK   89  A    between atoms: _199  and  _201
REMARK   90  A    between atoms: _201  and  _202
REMARK   91  A    between atoms: _201  and  _204
REMARK   92  A    between atoms: _204  and  _205
REMARK   93  A    between atoms: _208  and  _210
REMARK   94  A    between atoms: _210  and  _211
REMARK   95  A    between atoms: _213  and  _215
REMARK   96  A    between atoms: _215  and  _216
REMARK   97  A    between atoms: _215  and  _218
REMARK   98  A    between atoms: _218  and  _219
REMARK   99  A    between atoms: _219  and  _220
REMARK  100  A    between atoms: _222  and  _224
REMARK  101  A    between atoms: _224  and  _225
REMARK  102  A    between atoms: _224  and  _227
REMARK  103  A    between atoms: _227  and  _228
REMARK  104  A    between atoms: _231  and  _233
REMARK  105  A    between atoms: _233  and  _234
REMARK  106  A    between atoms: _237  and  _239
REMARK  107  A    between atoms: _239  and  _240
REMARK  108  A    between atoms: _239  and  _242
REMARK  109  A    between atoms: _242  and  _243
REMARK  110  A    between atoms: _246  and  _248
REMARK  111  A    between atoms: _248  and  _249
REMARK  112  A    between atoms: _248  and  _251
REMARK  113  A    between atoms: _251  and  _252
REMARK  114  A    between atoms: _255  and  _257
REMARK  115  A    between atoms: _257  and  _258
REMARK  116  A    between atoms: _257  and  _260
REMARK  117  A    between atoms: _260  and  _261
REMARK  118  A    between atoms: _266  and  _268
REMARK  119  A    between atoms: _268  and  _269
REMARK  120  A    between atoms: _268  and  _271
REMARK  121  A    between atoms: _271  and  _272
REMARK  122  A    between atoms: _277  and  _279
REMARK  123  A    between atoms: _279  and  _280
REMARK  124  A    between atoms: _279  and  _282
REMARK  125  A    between atoms: _282  and  _283
REMARK  126  A    between atoms: _286  and  _288
REMARK  127  A    between atoms: _288  and  _289
REMARK  128  A    between atoms: _291  and  _293
REMARK  129  A    between atoms: _293  and  _294
REMARK  130  A    between atoms: _293  and  _296
REMARK  131  A    between atoms: _296  and  _297
REMARK  132  A    between atoms: _300  and  _302
REMARK  133  A    between atoms: _302  and  _303
REMARK  134  A    between atoms: _302  and  _305
REMARK  135  A    between atoms: _305  and  _306
REMARK  136  A    between atoms: _309  and  _311
REMARK  137  A    between atoms: _311  and  _312
REMARK  138  A    between atoms: _315  and  _317
REMARK  139  A    between atoms: _317  and  _318
REMARK  140  A    between atoms: _320  and  _322
REMARK  141  A    between atoms: _322  and  _323
REMARK  142  A    between atoms: _322  and  _325
REMARK  143  A    between atoms: _325  and  _326
REMARK  144  A    between atoms: _332  and  _334
REMARK  145  A    between atoms: _334  and  _335
REMARK  146  A    between atoms: _337  and  _339
REMARK  147  A    between atoms: _339  and  _340
REMARK  148  A    between atoms: _339  and  _342
REMARK  149  A    between atoms: _345  and  _347
REMARK  150  A    between atoms: _347  and  _348
REMARK  151  A    between atoms: _350  and  _352
REMARK  152  A    between atoms: _352  and  _353
REMARK  153  A    between atoms: _352  and  _355
REMARK  154  A    between atoms: _355  and  _356
REMARK  155  A    between atoms: _362  and  _364
REMARK  156  A    between atoms: _364  and  _365
REMARK  157  A    between atoms: _364  and  _367
REMARK  158  A    between atoms: _367  and  _368
REMARK  159  A    between atoms: _373  and  _374
REMARK  160  A    between atoms: _376  and  _378
REMARK  161  A    between atoms: _378  and  _379
REMARK  162  A    between atoms: _382  and  _384
REMARK  163  A    between atoms: _384  and  _385
REMARK  164  A    between atoms: _384  and  _387
REMARK  165  A    between atoms: _390  and  _392
REMARK  166  A    between atoms: _392  and  _393
REMARK  167  A    between atoms: _392  and  _395
REMARK  168  A    between atoms: _398  and  _400
REMARK  169  A    between atoms: _400  and  _401
REMARK  170  A    between atoms: _400  and  _403
REMARK  171  A    between atoms: _403  and  _404
REMARK  172  A    between atoms: _407  and  _409
REMARK  173  A    between atoms: _409  and  _410
REMARK  174  A    between atoms: _409  and  _412
REMARK  175  A    between atoms: _412  and  _413
REMARK  176  A    between atoms: _416  and  _418
REMARK  177  A    between atoms: _418  and  _419
REMARK  178  A    between atoms: _418  and  _421
REMARK  179  A    between atoms: _421  and  _422
REMARK  180  A    between atoms: _422  and  _423
REMARK  181  A    between atoms: _423  and  _424
REMARK  182  A    between atoms: _424  and  _425
REMARK  183  A    between atoms: _429  and  _431
REMARK  184  A    between atoms: _431  and  _432
REMARK  185  A    between atoms: _431  and  _434
REMARK  186  A    between atoms: _434  and  _435
REMARK  187  A    between atoms: _440  and  _442
REMARK  188  A    between atoms: _442  and  _443
REMARK  189  A    between atoms: _445  and  _447
REMARK  190  A    between atoms: _447  and  _448
REMARK  191  A    between atoms: _447  and  _450
REMARK  192  A    between atoms: _450  and  _451
REMARK  193  A    between atoms: _454  and  _456
REMARK  194  A    between atoms: _456  and  _457
REMARK  195  A    between atoms: _456  and  _459
REMARK  196  A    between atoms: _459  and  _460
REMARK  197  A    between atoms: _460  and  _461
REMARK  198  A    between atoms: _461  and  _462
REMARK  199  A    between atoms: _462  and  _463
REMARK  200  A    between atoms: _467  and  _469
REMARK  201  A    between atoms: _469  and  _470
REMARK  202  A    between atoms: _469  and  _472
REMARK  203  A    between atoms: _475  and  _477
REMARK  204  A    between atoms: _477  and  _478
REMARK  205  A    between atoms: _477  and  _480
REMARK  206  A    between atoms: _480  and  _481
REMARK  207  A    between atoms: _484  and  _486
REMARK  208  A    between atoms: _486  and  _487
REMARK  209  A    between atoms: _486  and  _489
REMARK  210  A    between atoms: _489  and  _490
REMARK  211  A    between atoms: _493  and  _495
REMARK  212  A    between atoms: _495  and  _496
REMARK  213  A    between atoms: _495  and  _498
REMARK  214  A    between atoms: _498  and  _499
REMARK  215  A    between atoms: _502  and  _504
REMARK  216  A    between atoms: _504  and  _505
REMARK  217  A    between atoms: _504  and  _507
REMARK  218  A    between atoms: _507  and  _508
REMARK  219  A    between atoms: _508  and  _509
REMARK  220  A    between atoms: _509  and  _510
REMARK  221  A    between atoms: _510  and  _511
REMARK  222  A    between atoms: _515  and  _517
REMARK  223  A    between atoms: _517  and  _518
REMARK  224  A    between atoms: _517  and  _520
REMARK  225  A    between atoms: _520  and  _521
REMARK  226  A    between atoms: _526  and  _527
REMARK                            x       y       z     vdW  Elec       q    Type
REMARK                         _______ _______ _______ _____ _____    ______ ____
ROOT
ATOM      1  O   HOH     1      31.947   1.043  24.003  0.00  0.00    +0.000 OA
ENDROOT
TORSDOF 0
REMARK  Name = ../refined-set-2016/2uwd/2uwd_pocket.pdb
REMARK  226 active torsions:
REMARK  status: ('A' for Active; 'I' for Inactive)
REMARK    1  A    between atoms: _1  and  _3
REMARK    2  A    between atoms: _3  and  _4
REMARK    3  A    between atoms: _3  and  _6
REMARK    4  A    between atoms: _6  and  _7
REMARK    5  A    between atoms: _13  and  _15
REMARK    6  A    between atoms: _15  and  _16
REMARK    7  A    between atoms: _15  and  _18
REMARK    8  A    between atoms: _18  and  _19
REMARK    9  A    between atoms: _22  and  _24
REMARK   10  A    between atoms: _24  and  _25
REMARK   11  A    between atoms: _24  and  _27
REMARK   12  A    between atoms: _27  and  _28
REMARK   13  A    between atoms: _28  and  _29
REMARK   14  A    between atoms: _32  and  _34
REMARK   15  A    between atoms: _34  and  _35
REMARK   16  A    between atoms: _34  and  _37
REMARK   17  A    between atoms: _37  and  _38
REMARK   18  A    between atoms: _41  and  _43
REMARK   19  A    between atoms: _43  and  _44
REMARK   20  A    between atoms: _43  and  _46
REMARK   21  A    between atoms: _46  and  _47
REMARK   22  A    between atoms: _50  and  _52
REMARK   23  A    between atoms: _52  and  _53
REMARK   24  A    between atoms: _52  and  _55
REMARK   25  A    between atoms: _55  and  _56
REMARK   26  A    between atoms: _58  and  _60
REMARK   27  A    between atoms: _60  and  _61
REMARK   28  A    between atoms: _60  and  _63
REMARK   29  A    between atoms: _63  and  _64
REMARK   30  A    between atoms: _69  and  _71
REMARK   31  A    between atoms: _71  and  _72
REMARK   32  A    between atoms: _71  and  _74
REMARK   33  A    between atoms: _74  and  _75
REMARK   34  A    between atoms: _77  and  _79
REMARK   35  A    between atoms: _79  and  _80
REMARK   36  A    between atoms: _79  and  _82
REMARK   37  A    between atoms: _82  and  _83
REMARK   38  A    between atoms: _85  and  _87
REMARK   39  A    between atoms: _87  and  _88
REMARK   40  A    between atoms: _87  and  _90
REMARK   41  A    between atoms: _90  and  _91
REMARK   42  A    between atoms: _94  and  _96
REMARK   43  A    between atoms: _96  and  _97
REMARK   44  A    between atoms: _100  and  _102
REMARK   45  A    between atoms: _102  and  _103
REMARK   46  A    between atoms: _102  and  _105
REMARK   47  A    between atoms: _105  and  _106
REMARK   48  A    between atoms: _109  and  _111
REMARK   49  A    between atoms: _111  and  _112
REMARK   50  A    between atoms: _111  and  _114
REMARK   51  A    between atoms: _114  and  _115
REMARK   52  A    between atoms: _118  and  _120
REMARK   53  A    between atoms: _120  and  _121
REMARK   54  A    between atoms: _120  and  _123
REMARK   55  A    between atoms: _123  and  _124
REMARK   56  A    between atoms: _124  and  _125
REMARK   57  A    between atoms: _125  and  _126
REMARK   58  A    between atoms: _126  and  _127
REMARK   59  A    between atoms: _131  and  _133
REMARK   60  A    between atoms: _133  and  _134
REMARK   61  A    between atoms: _133  and  _136
REMARK   62  A    between atoms: _136  and  _137
REMARK   63  A    between atoms: _140  and  _142
REMARK   64  A    between atoms: _142  and  _143
REMARK   65  A    between atoms: _142  and  _145
REMARK   66  A    between atoms: _145  and  _146
REMARK   67  A    between atoms: _146  and  _147
REMARK   68  A    between atoms: _150  and  _152
REMARK   69  A    between atoms: _152  and  _153
REMARK   70  A    between atoms: _152  and  _155
REMARK   71  A    between atoms: _155  and  _156
REMARK   72  A    between atoms: _159  and  _161
REMARK   73  A    between atoms: _161  and  _162
REMARK   74  A    between atoms: _161  and  _164
REMARK   75  A    between atoms: _164  and  _165
REMARK   76  A    between atoms: _168  and  _170
REMARK   77  A    between atoms: _170  and  _171
REMARK   78  A    between atoms: _170  and  _173
REMARK   79  A    between atoms: _176  and  _178
REMARK   80  A    between atoms: _178  and  _179
REMARK   81  A    between atoms: _178  and  _181
REMARK   82  A    between atoms: _181  and  _182
REMARK   83  A    between atoms: _185  and  _187
REMARK   84  A    between atoms: _187  and  _188
REMARK   85  A    between atoms: _187  and  _190
REMARK   86  A    between atoms: _190  and  _191
REMARK   87  A    between atoms: _194  and  _196
REMARK   88  A    between atoms: _196  and  _197
REMARK   89  A    between atoms: _199  and  _201
REMARK   90  A    between atoms: _201  and  _202
REMARK   91  A    between atoms: _201  and  _204
REMARK   92  A    between atoms: _204  and  _205
REMARK   93  A    between atoms: _208  and  _210
REMARK   94  A    between atoms: _210  and  _211
REMARK   95  A    between atoms: _213  and  _215
REMARK   96  A    between atoms: _215  and  _216
REMARK   97  A    between atoms: _215  and  _218
REMARK   98  A    between atoms: _218  and  _219
REMARK   99  A    between atoms: _219  and  _220
REMARK  100  A    between atoms: _222  and  _224
REMARK  101  A    between atoms: _224  and  _225
REMARK  102  A    between atoms: _224  and  _227
REMARK  103  A    between atoms: _227  and  _228
REMARK  104  A    between atoms: _231  and  _233
REMARK  105  A    between atoms: _233  and  _234
REMARK  106  A    between atoms: _237  and  _239
REMARK  107  A    between atoms: _239  and  _240
REMARK  108  A    between atoms: _239  and  _242
REMARK  109  A    between atoms: _242  and  _243
REMARK  110  A    between atoms: _246  and  _248
REMARK  111  A    between atoms: _248  and  _249
REMARK  112  A    between atoms: _248  and  _251
REMARK  113  A    between atoms: _251  and  _252
REMARK  114  A    between atoms: _255  and  _257
REMARK  115  A    between atoms: _257  and  _258
REMARK  116  A    between atoms: _257  and  _260
REMARK  117  A    between atoms: _260  and  _261
REMARK  118  A    between atoms: _266  and  _268
REMARK  119  A    between atoms: _268  and  _269
REMARK  120  A    between atoms: _268  and  _271
REMARK  121  A    between atoms: _271  and  _272
REMARK  122  A    between atoms: _277  and  _279
REMARK  123  A    between atoms: _279  and  _280
REMARK  124  A    between atoms: _279  and  _282
REMARK  125  A    between atoms: _282  and  _283
REMARK  126  A    between atoms: _286  and  _288
REMARK  127  A    between atoms: _288  and  _289
REMARK  128  A    between atoms: _291  and  _293
REMARK  129  A    between atoms: _293  and  _294
REMARK  130  A    between atoms: _293  and  _296
REMARK  131  A    between atoms: _296  and  _297
REMARK  132  A    between atoms: _300  and  _302
REMARK  133  A    between atoms: _302  and  _303
REMARK  134  A    between atoms: _302  and  _305
REMARK  135  A    between atoms: _305  and  _306
REMARK  136  A    between atoms: _309  and  _311
REMARK  137  A    between atoms: _311  and  _312
REMARK  138  A    between atoms: _315  and  _317
REMARK  139  A    between atoms: _317  and  _318
REMARK  140  A    between atoms: _320  and  _322
REMARK  141  A    between atoms: _322  and  _323
REMARK  142  A    between atoms: _322  and  _325
REMARK  143  A    between atoms: _325  and  _326
REMARK  144  A    between atoms: _332  and  _334
REMARK  145  A    between atoms: _334  and  _335
REMARK  146  A    between atoms: _337  and  _339
REMARK  147  A    between atoms: _339  and  _340
REMARK  148  A    between atoms: _339  and  _342
REMARK  149  A    between atoms: _345  and  _347
REMARK  150  A    between atoms: _347  and  _348
REMARK  151  A    between atoms: _350  and  _352
REMARK  152  A    between atoms: _352  and  _353
REMARK  153  A    between atoms: _352  and  _355
REMARK  154  A    between atoms: _355  and  _356
REMARK  155  A    between atoms: _362  and  _364
REMARK  156  A    between atoms: _364  and  _365
REMARK  157  A    between atoms: _364  and  _367
REMARK  158  A    between atoms: _367  and  _368
REMARK  159  A    between atoms: _373  and  _374
REMARK  160  A    between atoms: _376  and  _378
REMARK  161  A    between atoms: _378  and  _379
REMARK  162  A    between atoms: _382  and  _384
REMARK  163  A    between atoms: _384  and  _385
REMARK  164  A    between atoms: _384  and  _387
REMARK  165  A    between atoms: _390  and  _392
REMARK  166  A    between atoms: _392  and  _393
REMARK  167  A    between atoms: _392  and  _395
REMARK  168  A    between atoms: _398  and  _400
REMARK  169  A    between atoms: _400  and  _401
REMARK  170  A    between atoms: _400  and  _403
REMARK  171  A    between atoms: _403  and  _404
REMARK  172  A    between atoms: _407  and  _409
REMARK  173  A    between atoms: _409  and  _410
REMARK  174  A    between atoms: _409  and  _412
REMARK  175  A    between atoms: _412  and  _413
REMARK  176  A    between atoms: _416  and  _418
REMARK  177  A    between atoms: _418  and  _419
REMARK  178  A    between atoms: _418  and  _421
REMARK  179  A    between atoms: _421  and  _422
REMARK  180  A    between atoms: _422  and  _423
REMARK  181  A    between atoms: _423  and  _424
REMARK  182  A    between atoms: _424  and  _425
REMARK  183  A    between atoms: _429  and  _431
REMARK  184  A    between atoms: _431  and  _432
REMARK  185  A    between atoms: _431  and  _434
REMARK  186  A    between atoms: _434  and  _435
REMARK  187  A    between atoms: _440  and  _442
REMARK  188  A    between atoms: _442  and  _443
REMARK  189  A    between atoms: _445  and  _447
REMARK  190  A    between atoms: _447  and  _448
REMARK  191  A    between atoms: _447  and  _450
REMARK  192  A    between atoms: _450  and  _451
REMARK  193  A    between atoms: _454  and  _456
REMARK  194  A    between atoms: _456  and  _457
REMARK  195  A    between atoms: _456  and  _459
REMARK  196  A    between atoms: _459  and  _460
REMARK  197  A    between atoms: _460  and  _461
REMARK  198  A    between atoms: _461  and  _462
REMARK  199  A    between atoms: _462  and  _463
REMARK  200  A    between atoms: _467  and  _469
REMARK  201  A    between atoms: _469  and  _470
REMARK  202  A    between atoms: _469  and  _472
REMARK  203  A    between atoms: _475  and  _477
REMARK  204  A    between atoms: _477  and  _478
REMARK  205  A    between atoms: _477  and  _480
REMARK  206  A    between atoms: _480  and  _481
REMARK  207  A    between atoms: _484  and  _486
REMARK  208  A    between atoms: _486  and  _487
REMARK  209  A    between atoms: _486  and  _489
REMARK  210  A    between atoms: _489  and  _490
REMARK  211  A    between atoms: _493  and  _495
REMARK  212  A    between atoms: _495  and  _496
REMARK  213  A    between atoms: _495  and  _498
REMARK  214  A    between atoms: _498  and  _499
REMARK  215  A    between atoms: _502  and  _504
REMARK  216  A    between atoms: _504  and  _505
REMARK  217  A    between atoms: _504  and  _507
REMARK  218  A    between atoms: _507  and  _508
REMARK  219  A    between atoms: _508  and  _509
REMARK  220  A    between atoms: _509  and  _510
REMARK  221  A    between atoms: _510  and  _511
REMARK  222  A    between atoms: _515  and  _517
REMARK  223  A    between atoms: _517  and  _518
REMARK  224  A    between atoms: _517  and  _520
REMARK  225  A    between atoms: _520  and  _521
REMARK  226  A    between atoms: _526  and  _527
REMARK                            x       y       z     vdW  Elec       q    Type
REMARK                         _______ _______ _______ _____ _____    ______ ____
ROOT
ATOM      1  O   HOH     1      34.550   1.183  26.730  0.00  0.00    +0.000 OA
ENDROOT
TORSDOF 0
REMARK  Name = ../refined-set-2016/2uwd/2uwd_pocket.pdb
REMARK  226 active torsions:
REMARK  status: ('A' for Active; 'I' for Inactive)
REMARK    1  A    between atoms: _1  and  _3
REMARK    2  A    between atoms: _3  and  _4
REMARK    3  A    between atoms: _3  and  _6
REMARK    4  A    between atoms: _6  and  _7
REMARK    5  A    between atoms: _13  and  _15
REMARK    6  A    between atoms: _15  and  _16
REMARK    7  A    between atoms: _15  and  _18
REMARK    8  A    between atoms: _18  and  _19
REMARK    9  A    between atoms: _22  and  _24
REMARK   10  A    between atoms: _24  and  _25
REMARK   11  A    between atoms: _24  and  _27
REMARK   12  A    between atoms: _27  and  _28
REMARK   13  A    between atoms: _28  and  _29
REMARK   14  A    between atoms: _32  and  _34
REMARK   15  A    between atoms: _34  and  _35
REMARK   16  A    between atoms: _34  and  _37
REMARK   17  A    between atoms: _37  and  _38
REMARK   18  A    between atoms: _41  and  _43
REMARK   19  A    between atoms: _43  and  _44
REMARK   20  A    between atoms: _43  and  _46
REMARK   21  A    between atoms: _46  and  _47
REMARK   22  A    between atoms: _50  and  _52
REMARK   23  A    between atoms: _52  and  _53
REMARK   24  A    between atoms: _52  and  _55
REMARK   25  A    between atoms: _55  and  _56
REMARK   26  A    between atoms: _58  and  _60
REMARK   27  A    between atoms: _60  and  _61
REMARK   28  A    between atoms: _60  and  _63
REMARK   29  A    between atoms: _63  and  _64
REMARK   30  A    between atoms: _69  and  _71
REMARK   31  A    between atoms: _71  and  _72
REMARK   32  A    between atoms: _71  and  _74
REMARK   33  A    between atoms: _74  and  _75
REMARK   34  A    between atoms: _77  and  _79
REMARK   35  A    between atoms: _79  and  _80
REMARK   36  A    between atoms: _79  and  _82
REMARK   37  A    between atoms: _82  and  _83
REMARK   38  A    between atoms: _85  and  _87
REMARK   39  A    between atoms: _87  and  _88
REMARK   40  A    between atoms: _87  and  _90
REMARK   41  A    between atoms: _90  and  _91
REMARK   42  A    between atoms: _94  and  _96
REMARK   43  A    between atoms: _96  and  _97
REMARK   44  A    between atoms: _100  and  _102
REMARK   45  A    between atoms: _102  and  _103
REMARK   46  A    between atoms: _102  and  _105
REMARK   47  A    between atoms: _105  and  _106
REMARK   48  A    between atoms: _109  and  _111
REMARK   49  A    between atoms: _111  and  _112
REMARK   50  A    between atoms: _111  and  _114
REMARK   51  A    between atoms: _114  and  _115
REMARK   52  A    between atoms: _118  and  _120
REMARK   53  A    between atoms: _120  and  _121
REMARK   54  A    between atoms: _120  and  _123
REMARK   55  A    between atoms: _123  and  _124
REMARK   56  A    between atoms: _124  and  _125
REMARK   57  A    between atoms: _125  and  _126
REMARK   58  A    between atoms: _126  and  _127
REMARK   59  A    between atoms: _131  and  _133
REMARK   60  A    between atoms: _133  and  _134
REMARK   61  A    between atoms: _133  and  _136
REMARK   62  A    between atoms: _136  and  _137
REMARK   63  A    between atoms: _140  and  _142
REMARK   64  A    between atoms: _142  and  _143
REMARK   65  A    between atoms: _142  and  _145
REMARK   66  A    between atoms: _145  and  _146
REMARK   67  A    between atoms: _146  and  _147
REMARK   68  A    between atoms: _150  and  _152
REMARK   69  A    between atoms: _152  and  _153
REMARK   70  A    between atoms: _152  and  _155
REMARK   71  A    between atoms: _155  and  _156
REMARK   72  A    between atoms: _159  and  _161
REMARK   73  A    between atoms: _161  and  _162
REMARK   74  A    between atoms: _161  and  _164
REMARK   75  A    between atoms: _164  and  _165
REMARK   76  A    between atoms: _168  and  _170
REMARK   77  A    between atoms: _170  and  _171
REMARK   78  A    between atoms: _170  and  _173
REMARK   79  A    between atoms: _176  and  _178
REMARK   80  A    between atoms: _178  and  _179
REMARK   81  A    between atoms: _178  and  _181
REMARK   82  A    between atoms: _181  and  _182
REMARK   83  A    between atoms: _185  and  _187
REMARK   84  A    between atoms: _187  and  _188
REMARK   85  A    between atoms: _187  and  _190
REMARK   86  A    between atoms: _190  and  _191
REMARK   87  A    between atoms: _194  and  _196
REMARK   88  A    between atoms: _196  and  _197
REMARK   89  A    between atoms: _199  and  _201
REMARK   90  A    between atoms: _201  and  _202
REMARK   91  A    between atoms: _201  and  _204
REMARK   92  A    between atoms: _204  and  _205
REMARK   93  A    between atoms: _208  and  _210
REMARK   94  A    between atoms: _210  and  _211
REMARK   95  A    between atoms: _213  and  _215
REMARK   96  A    between atoms: _215  and  _216
REMARK   97  A    between atoms: _215  and  _218
REMARK   98  A    between atoms: _218  and  _219
REMARK   99  A    between atoms: _219  and  _220
REMARK  100  A    between atoms: _222  and  _224
REMARK  101  A    between atoms: _224  and  _225
REMARK  102  A    between atoms: _224  and  _227
REMARK  103  A    between atoms: _227  and  _228
REMARK  104  A    between atoms: _231  and  _233
REMARK  105  A    between atoms: _233  and  _234
REMARK  106  A    between atoms: _237  and  _239
REMARK  107  A    between atoms: _239  and  _240
REMARK  108  A    between atoms: _239  and  _242
REMARK  109  A    between atoms: _242  and  _243
REMARK  110  A    between atoms: _246  and  _248
REMARK  111  A    between atoms: _248  and  _249
REMARK  112  A    between atoms: _248  and  _251
REMARK  113  A    between atoms: _251  and  _252
REMARK  114  A    between atoms: _255  and  _257
REMARK  115  A    between atoms: _257  and  _258
REMARK  116  A    between atoms: _257  and  _260
REMARK  117  A    between atoms: _260  and  _261
REMARK  118  A    between atoms: _266  and  _268
REMARK  119  A    between atoms: _268  and  _269
REMARK  120  A    between atoms: _268  and  _271
REMARK  121  A    between atoms: _271  and  _272
REMARK  122  A    between atoms: _277  and  _279
REMARK  123  A    between atoms: _279  and  _280
REMARK  124  A    between atoms: _279  and  _282
REMARK  125  A    between atoms: _282  and  _283
REMARK  126  A    between atoms: _286  and  _288
REMARK  127  A    between atoms: _288  and  _289
REMARK  128  A    between atoms: _291  and  _293
REMARK  129  A    between atoms: _293  and  _294
REMARK  130  A    between atoms: _293  and  _296
REMARK  131  A    between atoms: _296  and  _297
REMARK  132  A    between atoms: _300  and  _302
REMARK  133  A    between atoms: _302  and  _303
REMARK  134  A    between atoms: _302  and  _305
REMARK  135  A    between atoms: _305  and  _306
REMARK  136  A    between atoms: _309  and  _311
REMARK  137  A    between atoms: _311  and  _312
REMARK  138  A    between atoms: _315  and  _317
REMARK  139  A    between atoms: _317  and  _318
REMARK  140  A    between atoms: _320  and  _322
REMARK  141  A    between atoms: _322  and  _323
REMARK  142  A    between atoms: _322  and  _325
REMARK  143  A    between atoms: _325  and  _326
REMARK  144  A    between atoms: _332  and  _334
REMARK  145  A    between atoms: _334  and  _335
REMARK  146  A    between atoms: _337  and  _339
REMARK  147  A    between atoms: _339  and  _340
REMARK  148  A    between atoms: _339  and  _342
REMARK  149  A    between atoms: _345  and  _347
REMARK  150  A    between atoms: _347  and  _348
REMARK  151  A    between atoms: _350  and  _352
REMARK  152  A    between atoms: _352  and  _353
REMARK  153  A    between atoms: _352  and  _355
REMARK  154  A    between atoms: _355  and  _356
REMARK  155  A    between atoms: _362  and  _364
REMARK  156  A    between atoms: _364  and  _365
REMARK  157  A    between atoms: _364  and  _367
REMARK  158  A    between atoms: _367  and  _368
REMARK  159  A    between atoms: _373  and  _374
REMARK  160  A    between atoms: _376  and  _378
REMARK  161  A    between atoms: _378  and  _379
REMARK  162  A    between atoms: _382  and  _384
REMARK  163  A    between atoms: _384  and  _385
REMARK  164  A    between atoms: _384  and  _387
REMARK  165  A    between atoms: _390  and  _392
REMARK  166  A    between atoms: _392  and  _393
REMARK  167  A    between atoms: _392  and  _395
REMARK  168  A    between atoms: _398  and  _400
REMARK  169  A    between atoms: _400  and  _401
REMARK  170  A    between atoms: _400  and  _403
REMARK  171  A    between atoms: _403  and  _404
REMARK  172  A    between atoms: _407  and  _409
REMARK  173  A    between atoms: _409  and  _410
REMARK  174  A    between atoms: _409  and  _412
REMARK  175  A    between atoms: _412  and  _413
REMARK  176  A    between atoms: _416  and  _418
REMARK  177  A    between atoms: _418  and  _419
REMARK  178  A    between atoms: _418  and  _421
REMARK  179  A    between atoms: _421  and  _422
REMARK  180  A    between atoms: _422  and  _423
REMARK  181  A    between atoms: _423  and  _424
REMARK  182  A    between atoms: _424  and  _425
REMARK  183  A    between atoms: _429  and  _431
REMARK  184  A    between atoms: _431  and  _432
REMARK  185  A    between atoms: _431  and  _434
REMARK  186  A    between atoms: _434  and  _435
REMARK  187  A    between atoms: _440  and  _442
REMARK  188  A    between atoms: _442  and  _443
REMARK  189  A    between atoms: _445  and  _447
REMARK  190  A    between atoms: _447  and  _448
REMARK  191  A    between atoms: _447  and  _450
REMARK  192  A    between atoms: _450  and  _451
REMARK  193  A    between atoms: _454  and  _456
REMARK  194  A    between atoms: _456  and  _457
REMARK  195  A    between atoms: _456  and  _459
REMARK  196  A    between atoms: _459  and  _460
REMARK  197  A    between atoms: _460  and  _461
REMARK  198  A    between atoms: _461  and  _462
REMARK  199  A    between atoms: _462  and  _463
REMARK  200  A    between atoms: _467  and  _469
REMARK  201  A    between atoms: _469  and  _470
REMARK  202  A    between atoms: _469  and  _472
REMARK  203  A    between atoms: _475  and  _477
REMARK  204  A    between atoms: _477  and  _478
REMARK  205  A    between atoms: _477  and  _480
REMARK  206  A    between atoms: _480  and  _481
REMARK  207  A    between atoms: _484  and  _486
REMARK  208  A    between atoms: _486  and  _487
REMARK  209  A    between atoms: _486  and  _489
REMARK  210  A    between atoms: _489  and  _490
REMARK  211  A    between atoms: _493  and  _495
REMARK  212  A    between atoms: _495  and  _496
REMARK  213  A    between atoms: _495  and  _498
REMARK  214  A    between atoms: _498  and  _499
REMARK  215  A    between atoms: _502  and  _504
REMARK  216  A    between atoms: _504  and  _505
REMARK  217  A    between atoms: _504  and  _507
REMARK  218  A    between atoms: _507  and  _508
REMARK  219  A    between atoms: _508  and  _509
REMARK  220  A    between atoms: _509  and  _510
REMARK  221  A    between atoms: _510  and  _511
REMARK  222  A    between atoms: _515  and  _517
REMARK  223  A    between atoms: _517  and  _518
REMARK  224  A    between atoms: _517  and  _520
REMARK  225  A    between atoms: _520  and  _521
REMARK  226  A    between atoms: _526  and  _527
REMARK                            x       y       z     vdW  Elec       q    Type
REMARK                         _______ _______ _______ _____ _____    ______ ____
ROOT
ATOM      1  O   HOH     1      30.987   2.780  32.012  0.00  0.00    +0.000 OA
ENDROOT
TORSDOF 0
REMARK  Name = ../refined-set-2016/2uwd/2uwd_pocket.pdb
REMARK  226 active torsions:
REMARK  status: ('A' for Active; 'I' for Inactive)
REMARK    1  A    between atoms: _1  and  _3
REMARK    2  A    between atoms: _3  and  _4
REMARK    3  A    between atoms: _3  and  _6
REMARK    4  A    between atoms: _6  and  _7
REMARK    5  A    between atoms: _13  and  _15
REMARK    6  A    between atoms: _15  and  _16
REMARK    7  A    between atoms: _15  and  _18
REMARK    8  A    between atoms: _18  and  _19
REMARK    9  A    between atoms: _22  and  _24
REMARK   10  A    between atoms: _24  and  _25
REMARK   11  A    between atoms: _24  and  _27
REMARK   12  A    between atoms: _27  and  _28
REMARK   13  A    between atoms: _28  and  _29
REMARK   14  A    between atoms: _32  and  _34
REMARK   15  A    between atoms: _34  and  _35
REMARK   16  A    between atoms: _34  and  _37
REMARK   17  A    between atoms: _37  and  _38
REMARK   18  A    between atoms: _41  and  _43
REMARK   19  A    between atoms: _43  and  _44
REMARK   20  A    between atoms: _43  and  _46
REMARK   21  A    between atoms: _46  and  _47
REMARK   22  A    between atoms: _50  and  _52
REMARK   23  A    between atoms: _52  and  _53
REMARK   24  A    between atoms: _52  and  _55
REMARK   25  A    between atoms: _55  and  _56
REMARK   26  A    between atoms: _58  and  _60
REMARK   27  A    between atoms: _60  and  _61
REMARK   28  A    between atoms: _60  and  _63
REMARK   29  A    between atoms: _63  and  _64
REMARK   30  A    between atoms: _69  and  _71
REMARK   31  A    between atoms: _71  and  _72
REMARK   32  A    between atoms: _71  and  _74
REMARK   33  A    between atoms: _74  and  _75
REMARK   34  A    between atoms: _77  and  _79
REMARK   35  A    between atoms: _79  and  _80
REMARK   36  A    between atoms: _79  and  _82
REMARK   37  A    between atoms: _82  and  _83
REMARK   38  A    between atoms: _85  and  _87
REMARK   39  A    between atoms: _87  and  _88
REMARK   40  A    between atoms: _87  and  _90
REMARK   41  A    between atoms: _90  and  _91
REMARK   42  A    between atoms: _94  and  _96
REMARK   43  A    between atoms: _96  and  _97
REMARK   44  A    between atoms: _100  and  _102
REMARK   45  A    between atoms: _102  and  _103
REMARK   46  A    between atoms: _102  and  _105
REMARK   47  A    between atoms: _105  and  _106
REMARK   48  A    between atoms: _109  and  _111
REMARK   49  A    between atoms: _111  and  _112
REMARK   50  A    between atoms: _111  and  _114
REMARK   51  A    between atoms: _114  and  _115
REMARK   52  A    between atoms: _118  and  _120
REMARK   53  A    between atoms: _120  and  _121
REMARK   54  A    between atoms: _120  and  _123
REMARK   55  A    between atoms: _123  and  _124
REMARK   56  A    between atoms: _124  and  _125
REMARK   57  A    between atoms: _125  and  _126
REMARK   58  A    between atoms: _126  and  _127
REMARK   59  A    between atoms: _131  and  _133
REMARK   60  A    between atoms: _133  and  _134
REMARK   61  A    between atoms: _133  and  _136
REMARK   62  A    between atoms: _136  and  _137
REMARK   63  A    between atoms: _140  and  _142
REMARK   64  A    between atoms: _142  and  _143
REMARK   65  A    between atoms: _142  and  _145
REMARK   66  A    between atoms: _145  and  _146
REMARK   67  A    between atoms: _146  and  _147
REMARK   68  A    between atoms: _150  and  _152
REMARK   69  A    between atoms: _152  and  _153
REMARK   70  A    between atoms: _152  and  _155
REMARK   71  A    between atoms: _155  and  _156
REMARK   72  A    between atoms: _159  and  _161
REMARK   73  A    between atoms: _161  and  _162
REMARK   74  A    between atoms: _161  and  _164
REMARK   75  A    between atoms: _164  and  _165
REMARK   76  A    between atoms: _168  and  _170
REMARK   77  A    between atoms: _170  and  _171
REMARK   78  A    between atoms: _170  and  _173
REMARK   79  A    between atoms: _176  and  _178
REMARK   80  A    between atoms: _178  and  _179
REMARK   81  A    between atoms: _178  and  _181
REMARK   82  A    between atoms: _181  and  _182
REMARK   83  A    between atoms: _185  and  _187
REMARK   84  A    between atoms: _187  and  _188
REMARK   85  A    between atoms: _187  and  _190
REMARK   86  A    between atoms: _190  and  _191
REMARK   87  A    between atoms: _194  and  _196
REMARK   88  A    between atoms: _196  and  _197
REMARK   89  A    between atoms: _199  and  _201
REMARK   90  A    between atoms: _201  and  _202
REMARK   91  A    between atoms: _201  and  _204
REMARK   92  A    between atoms: _204  and  _205
REMARK   93  A    between atoms: _208  and  _210
REMARK   94  A    between atoms: _210  and  _211
REMARK   95  A    between atoms: _213  and  _215
REMARK   96  A    between atoms: _215  and  _216
REMARK   97  A    between atoms: _215  and  _218
REMARK   98  A    between atoms: _218  and  _219
REMARK   99  A    between atoms: _219  and  _220
REMARK  100  A    between atoms: _222  and  _224
REMARK  101  A    between atoms: _224  and  _225
REMARK  102  A    between atoms: _224  and  _227
REMARK  103  A    between atoms: _227  and  _228
REMARK  104  A    between atoms: _231  and  _233
REMARK  105  A    between atoms: _233  and  _234
REMARK  106  A    between atoms: _237  and  _239
REMARK  107  A    between atoms: _239  and  _240
REMARK  108  A    between atoms: _239  and  _242
REMARK  109  A    between atoms: _242  and  _243
REMARK  110  A    between atoms: _246  and  _248
REMARK  111  A    between atoms: _248  and  _249
REMARK  112  A    between atoms: _248  and  _251
REMARK  113  A    between atoms: _251  and  _252
REMARK  114  A    between atoms: _255  and  _257
REMARK  115  A    between atoms: _257  and  _258
REMARK  116  A    between atoms: _257  and  _260
REMARK  117  A    between atoms: _260  and  _261
REMARK  118  A    between atoms: _266  and  _268
REMARK  119  A    between atoms: _268  and  _269
REMARK  120  A    between atoms: _268  and  _271
REMARK  121  A    between atoms: _271  and  _272
REMARK  122  A    between atoms: _277  and  _279
REMARK  123  A    between atoms: _279  and  _280
REMARK  124  A    between atoms: _279  and  _282
REMARK  125  A    between atoms: _282  and  _283
REMARK  126  A    between atoms: _286  and  _288
REMARK  127  A    between atoms: _288  and  _289
REMARK  128  A    between atoms: _291  and  _293
REMARK  129  A    between atoms: _293  and  _294
REMARK  130  A    between atoms: _293  and  _296
REMARK  131  A    between atoms: _296  and  _297
REMARK  132  A    between atoms: _300  and  _302
REMARK  133  A    between atoms: _302  and  _303
REMARK  134  A    between atoms: _302  and  _305
REMARK  135  A    between atoms: _305  and  _306
REMARK  136  A    between atoms: _309  and  _311
REMARK  137  A    between atoms: _311  and  _312
REMARK  138  A    between atoms: _315  and  _317
REMARK  139  A    between atoms: _317  and  _318
REMARK  140  A    between atoms: _320  and  _322
REMARK  141  A    between atoms: _322  and  _323
REMARK  142  A    between atoms: _322  and  _325
REMARK  143  A    between atoms: _325  and  _326
REMARK  144  A    between atoms: _332  and  _334
REMARK  145  A    between atoms: _334  and  _335
REMARK  146  A    between atoms: _337  and  _339
REMARK  147  A    between atoms: _339  and  _340
REMARK  148  A    between atoms: _339  and  _342
REMARK  149  A    between atoms: _345  and  _347
REMARK  150  A    between atoms: _347  and  _348
REMARK  151  A    between atoms: _350  and  _352
REMARK  152  A    between atoms: _352  and  _353
REMARK  153  A    between atoms: _352  and  _355
REMARK  154  A    between atoms: _355  and  _356
REMARK  155  A    between atoms: _362  and  _364
REMARK  156  A    between atoms: _364  and  _365
REMARK  157  A    between atoms: _364  and  _367
REMARK  158  A    between atoms: _367  and  _368
REMARK  159  A    between atoms: _373  and  _374
REMARK  160  A    between atoms: _376  and  _378
REMARK  161  A    between atoms: _378  and  _379
REMARK  162  A    between atoms: _382  and  _384
REMARK  163  A    between atoms: _384  and  _385
REMARK  164  A    between atoms: _384  and  _387
REMARK  165  A    between atoms: _390  and  _392
REMARK  166  A    between atoms: _392  and  _393
REMARK  167  A    between atoms: _392  and  _395
REMARK  168  A    between atoms: _398  and  _400
REMARK  169  A    between atoms: _400  and  _401
REMARK  170  A    between atoms: _400  and  _403
REMARK  171  A    between atoms: _403  and  _404
REMARK  172  A    between atoms: _407  and  _409
REMARK  173  A    between atoms: _409  and  _410
REMARK  174  A    between atoms: _409  and  _412
REMARK  175  A    between atoms: _412  and  _413
REMARK  176  A    between atoms: _416  and  _418
REMARK  177  A    between atoms: _418  and  _419
REMARK  178  A    between atoms: _418  and  _421
REMARK  179  A    between atoms: _421  and  _422
REMARK  180  A    between atoms: _422  and  _423
REMARK  181  A    between atoms: _423  and  _424
REMARK  182  A    between atoms: _424  and  _425
REMARK  183  A    between atoms: _429  and  _431
REMARK  184  A    between atoms: _431  and  _432
REMARK  185  A    between atoms: _431  and  _434
REMARK  186  A    between atoms: _434  and  _435
REMARK  187  A    between atoms: _440  and  _442
REMARK  188  A    between atoms: _442  and  _443
REMARK  189  A    between atoms: _445  and  _447
REMARK  190  A    between atoms: _447  and  _448
REMARK  191  A    between atoms: _447  and  _450
REMARK  192  A    between atoms: _450  and  _451
REMARK  193  A    between atoms: _454  and  _456
REMARK  194  A    between atoms: _456  and  _457
REMARK  195  A    between atoms: _456  and  _459
REMARK  196  A    between atoms: _459  and  _460
REMARK  197  A    between atoms: _460  and  _461
REMARK  198  A    between atoms: _461  and  _462
REMARK  199  A    between atoms: _462  and  _463
REMARK  200  A    between atoms: _467  and  _469
REMARK  201  A    between atoms: _469  and  _470
REMARK  202  A    between atoms: _469  and  _472
REMARK  203  A    between atoms: _475  and  _477
REMARK  204  A    between atoms: _477  and  _478
REMARK  205  A    between atoms: _477  and  _480
REMARK  206  A    between atoms: _480  and  _481
REMARK  207  A    between atoms: _484  and  _486
REMARK  208  A    between atoms: _486  and  _487
REMARK  209  A    between atoms: _486  and  _489
REMARK  210  A    between atoms: _489  and  _490
REMARK  211  A    between atoms: _493  and  _495
REMARK  212  A    between atoms: _495  and  _496
REMARK  213  A    between atoms: _495  and  _498
REMARK  214  A    between atoms: _498  and  _499
REMARK  215  A    between atoms: _502  and  _504
REMARK  216  A    between atoms: _504  and  _505
REMARK  217  A    between atoms: _504  and  _507
REMARK  218  A    between atoms: _507  and  _508
REMARK  219  A    between atoms: _508  and  _509
REMARK  220  A    between atoms: _509  and  _510
REMARK  221  A    between atoms: _510  and  _511
REMARK  222  A    between atoms: _515  and  _517
REMARK  223  A    between atoms: _517  and  _518
REMARK  224  A    between atoms: _517  and  _520
REMARK  225  A    between atoms: _520  and  _521
REMARK  226  A    between atoms: _526  and  _527
REMARK                            x       y       z     vdW  Elec       q    Type
REMARK                         _______ _______ _______ _____ _____    ______ ____
ROOT
ATOM      1  O   HOH     1      26.982  14.286  22.677  0.00  0.00    +0.000 OA
ENDROOT
TORSDOF 0
REMARK  Name = ../refined-set-2016/2uwd/2uwd_pocket.pdb
REMARK  226 active torsions:
REMARK  status: ('A' for Active; 'I' for Inactive)
REMARK    1  A    between atoms: _1  and  _3
REMARK    2  A    between atoms: _3  and  _4
REMARK    3  A    between atoms: _3  and  _6
REMARK    4  A    between atoms: _6  and  _7
REMARK    5  A    between atoms: _13  and  _15
REMARK    6  A    between atoms: _15  and  _16
REMARK    7  A    between atoms: _15  and  _18
REMARK    8  A    between atoms: _18  and  _19
REMARK    9  A    between atoms: _22  and  _24
REMARK   10  A    between atoms: _24  and  _25
REMARK   11  A    between atoms: _24  and  _27
REMARK   12  A    between atoms: _27  and  _28
REMARK   13  A    between atoms: _28  and  _29
REMARK   14  A    between atoms: _32  and  _34
REMARK   15  A    between atoms: _34  and  _35
REMARK   16  A    between atoms: _34  and  _37
REMARK   17  A    between atoms: _37  and  _38
REMARK   18  A    between atoms: _41  and  _43
REMARK   19  A    between atoms: _43  and  _44
REMARK   20  A    between atoms: _43  and  _46
REMARK   21  A    between atoms: _46  and  _47
REMARK   22  A    between atoms: _50  and  _52
REMARK   23  A    between atoms: _52  and  _53
REMARK   24  A    between atoms: _52  and  _55
REMARK   25  A    between atoms: _55  and  _56
REMARK   26  A    between atoms: _58  and  _60
REMARK   27  A    between atoms: _60  and  _61
REMARK   28  A    between atoms: _60  and  _63
REMARK   29  A    between atoms: _63  and  _64
REMARK   30  A    between atoms: _69  and  _71
REMARK   31  A    between atoms: _71  and  _72
REMARK   32  A    between atoms: _71  and  _74
REMARK   33  A    between atoms: _74  and  _75
REMARK   34  A    between atoms: _77  and  _79
REMARK   35  A    between atoms: _79  and  _80
REMARK   36  A    between atoms: _79  and  _82
REMARK   37  A    between atoms: _82  and  _83
REMARK   38  A    between atoms: _85  and  _87
REMARK   39  A    between atoms: _87  and  _88
REMARK   40  A    between atoms: _87  and  _90
REMARK   41  A    between atoms: _90  and  _91
REMARK   42  A    between atoms: _94  and  _96
REMARK   43  A    between atoms: _96  and  _97
REMARK   44  A    between atoms: _100  and  _102
REMARK   45  A    between atoms: _102  and  _103
REMARK   46  A    between atoms: _102  and  _105
REMARK   47  A    between atoms: _105  and  _106
REMARK   48  A    between atoms: _109  and  _111
REMARK   49  A    between atoms: _111  and  _112
REMARK   50  A    between atoms: _111  and  _114
REMARK   51  A    between atoms: _114  and  _115
REMARK   52  A    between atoms: _118  and  _120
REMARK   53  A    between atoms: _120  and  _121
REMARK   54  A    between atoms: _120  and  _123
REMARK   55  A    between atoms: _123  and  _124
REMARK   56  A    between atoms: _124  and  _125
REMARK   57  A    between atoms: _125  and  _126
REMARK   58  A    between atoms: _126  and  _127
REMARK   59  A    between atoms: _131  and  _133
REMARK   60  A    between atoms: _133  and  _134
REMARK   61  A    between atoms: _133  and  _136
REMARK   62  A    between atoms: _136  and  _137
REMARK   63  A    between atoms: _140  and  _142
REMARK   64  A    between atoms: _142  and  _143
REMARK   65  A    between atoms: _142  and  _145
REMARK   66  A    between atoms: _145  and  _146
REMARK   67  A    between atoms: _146  and  _147
REMARK   68  A    between atoms: _150  and  _152
REMARK   69  A    between atoms: _152  and  _153
REMARK   70  A    between atoms: _152  and  _155
REMARK   71  A    between atoms: _155  and  _156
REMARK   72  A    between atoms: _159  and  _161
REMARK   73  A    between atoms: _161  and  _162
REMARK   74  A    between atoms: _161  and  _164
REMARK   75  A    between atoms: _164  and  _165
REMARK   76  A    between atoms: _168  and  _170
REMARK   77  A    between atoms: _170  and  _171
REMARK   78  A    between atoms: _170  and  _173
REMARK   79  A    between atoms: _176  and  _178
REMARK   80  A    between atoms: _178  and  _179
REMARK   81  A    between atoms: _178  and  _181
REMARK   82  A    between atoms: _181  and  _182
REMARK   83  A    between atoms: _185  and  _187
REMARK   84  A    between atoms: _187  and  _188
REMARK   85  A    between atoms: _187  and  _190
REMARK   86  A    between atoms: _190  and  _191
REMARK   87  A    between atoms: _194  and  _196
REMARK   88  A    between atoms: _196  and  _197
REMARK   89  A    between atoms: _199  and  _201
REMARK   90  A    between atoms: _201  and  _202
REMARK   91  A    between atoms: _201  and  _204
REMARK   92  A    between atoms: _204  and  _205
REMARK   93  A    between atoms: _208  and  _210
REMARK   94  A    between atoms: _210  and  _211
REMARK   95  A    between atoms: _213  and  _215
REMARK   96  A    between atoms: _215  and  _216
REMARK   97  A    between atoms: _215  and  _218
REMARK   98  A    between atoms: _218  and  _219
REMARK   99  A    between atoms: _219  and  _220
REMARK  100  A    between atoms: _222  and  _224
REMARK  101  A    between atoms: _224  and  _225
REMARK  102  A    between atoms: _224  and  _227
REMARK  103  A    between atoms: _227  and  _228
REMARK  104  A    between atoms: _231  and  _233
REMARK  105  A    between atoms: _233  and  _234
REMARK  106  A    between atoms: _237  and  _239
REMARK  107  A    between atoms: _239  and  _240
REMARK  108  A    between atoms: _239  and  _242
REMARK  109  A    between atoms: _242  and  _243
REMARK  110  A    between atoms: _246  and  _248
REMARK  111  A    between atoms: _248  and  _249
REMARK  112  A    between atoms: _248  and  _251
REMARK  113  A    between atoms: _251  and  _252
REMARK  114  A    between atoms: _255  and  _257
REMARK  115  A    between atoms: _257  and  _258
REMARK  116  A    between atoms: _257  and  _260
REMARK  117  A    between atoms: _260  and  _261
REMARK  118  A    between atoms: _266  and  _268
REMARK  119  A    between atoms: _268  and  _269
REMARK  120  A    between atoms: _268  and  _271
REMARK  121  A    between atoms: _271  and  _272
REMARK  122  A    between atoms: _277  and  _279
REMARK  123  A    between atoms: _279  and  _280
REMARK  124  A    between atoms: _279  and  _282
REMARK  125  A    between atoms: _282  and  _283
REMARK  126  A    between atoms: _286  and  _288
REMARK  127  A    between atoms: _288  and  _289
REMARK  128  A    between atoms: _291  and  _293
REMARK  129  A    between atoms: _293  and  _294
REMARK  130  A    between atoms: _293  and  _296
REMARK  131  A    between atoms: _296  and  _297
REMARK  132  A    between atoms: _300  and  _302
REMARK  133  A    between atoms: _302  and  _303
REMARK  134  A    between atoms: _302  and  _305
REMARK  135  A    between atoms: _305  and  _306
REMARK  136  A    between atoms: _309  and  _311
REMARK  137  A    between atoms: _311  and  _312
REMARK  138  A    between atoms: _315  and  _317
REMARK  139  A    between atoms: _317  and  _318
REMARK  140  A    between atoms: _320  and  _322
REMARK  141  A    between atoms: _322  and  _323
REMARK  142  A    between atoms: _322  and  _325
REMARK  143  A    between atoms: _325  and  _326
REMARK  144  A    between atoms: _332  and  _334
REMARK  145  A    between atoms: _334  and  _335
REMARK  146  A    between atoms: _337  and  _339
REMARK  147  A    between atoms: _339  and  _340
REMARK  148  A    between atoms: _339  and  _342
REMARK  149  A    between atoms: _345  and  _347
REMARK  150  A    between atoms: _347  and  _348
REMARK  151  A    between atoms: _350  and  _352
REMARK  152  A    between atoms: _352  and  _353
REMARK  153  A    between atoms: _352  and  _355
REMARK  154  A    between atoms: _355  and  _356
REMARK  155  A    between atoms: _362  and  _364
REMARK  156  A    between atoms: _364  and  _365
REMARK  157  A    between atoms: _364  and  _367
REMARK  158  A    between atoms: _367  and  _368
REMARK  159  A    between atoms: _373  and  _374
REMARK  160  A    between atoms: _376  and  _378
REMARK  161  A    between atoms: _378  and  _379
REMARK  162  A    between atoms: _382  and  _384
REMARK  163  A    between atoms: _384  and  _385
REMARK  164  A    between atoms: _384  and  _387
REMARK  165  A    between atoms: _390  and  _392
REMARK  166  A    between atoms: _392  and  _393
REMARK  167  A    between atoms: _392  and  _395
REMARK  168  A    between atoms: _398  and  _400
REMARK  169  A    between atoms: _400  and  _401
REMARK  170  A    between atoms: _400  and  _403
REMARK  171  A    between atoms: _403  and  _404
REMARK  172  A    between atoms: _407  and  _409
REMARK  173  A    between atoms: _409  and  _410
REMARK  174  A    between atoms: _409  and  _412
REMARK  175  A    between atoms: _412  and  _413
REMARK  176  A    between atoms: _416  and  _418
REMARK  177  A    between atoms: _418  and  _419
REMARK  178  A    between atoms: _418  and  _421
REMARK  179  A    between atoms: _421  and  _422
REMARK  180  A    between atoms: _422  and  _423
REMARK  181  A    between atoms: _423  and  _424
REMARK  182  A    between atoms: _424  and  _425
REMARK  183  A    between atoms: _429  and  _431
REMARK  184  A    between atoms: _431  and  _432
REMARK  185  A    between atoms: _431  and  _434
REMARK  186  A    between atoms: _434  and  _435
REMARK  187  A    between atoms: _440  and  _442
REMARK  188  A    between atoms: _442  and  _443
REMARK  189  A    between atoms: _445  and  _447
REMARK  190  A    between atoms: _447  and  _448
REMARK  191  A    between atoms: _447  and  _450
REMARK  192  A    between atoms: _450  and  _451
REMARK  193  A    between atoms: _454  and  _456
REMARK  194  A    between atoms: _456  and  _457
REMARK  195  A    between atoms: _456  and  _459
REMARK  196  A    between atoms: _459  and  _460
REMARK  197  A    between atoms: _460  and  _461
REMARK  198  A    between atoms: _461  and  _462
REMARK  199  A    between atoms: _462  and  _463
REMARK  200  A    between atoms: _467  and  _469
REMARK  201  A    between atoms: _469  and  _470
REMARK  202  A    between atoms: _469  and  _472
REMARK  203  A    between atoms: _475  and  _477
REMARK  204  A    between atoms: _477  and  _478
REMARK  205  A    between atoms: _477  and  _480
REMARK  206  A    between atoms: _480  and  _481
REMARK  207  A    between atoms: _484  and  _486
REMARK  208  A    between atoms: _486  and  _487
REMARK  209  A    between atoms: _486  and  _489
REMARK  210  A    between atoms: _489  and  _490
REMARK  211  A    between atoms: _493  and  _495
REMARK  212  A    between atoms: _495  and  _496
REMARK  213  A    between atoms: _495  and  _498
REMARK  214  A    between atoms: _498  and  _499
REMARK  215  A    between atoms: _502  and  _504
REMARK  216  A    between atoms: _504  and  _505
REMARK  217  A    between atoms: _504  and  _507
REMARK  218  A    between atoms: _507  and  _508
REMARK  219  A    between atoms: _508  and  _509
REMARK  220  A    between atoms: _509  and  _510
REMARK  221  A    between atoms: _510  and  _511
REMARK  222  A    between atoms: _515  and  _517
REMARK  223  A    between atoms: _517  and  _518
REMARK  224  A    between atoms: _517  and  _520
REMARK  225  A    between atoms: _520  and  _521
REMARK  226  A    between atoms: _526  and  _527
REMARK                            x       y       z     vdW  Elec       q    Type
REMARK                         _______ _______ _______ _____ _____    ______ ____
ROOT
ATOM      1  O   HOH     1      27.131  10.302  27.292  0.00  0.00    +0.000 OA
ENDROOT
TORSDOF 0
REMARK  Name = ../refined-set-2016/2uwd/2uwd_pocket.pdb
REMARK  226 active torsions:
REMARK  status: ('A' for Active; 'I' for Inactive)
REMARK    1  A    between atoms: _1  and  _3
REMARK    2  A    between atoms: _3  and  _4
REMARK    3  A    between atoms: _3  and  _6
REMARK    4  A    between atoms: _6  and  _7
REMARK    5  A    between atoms: _13  and  _15
REMARK    6  A    between atoms: _15  and  _16
REMARK    7  A    between atoms: _15  and  _18
REMARK    8  A    between atoms: _18  and  _19
REMARK    9  A    between atoms: _22  and  _24
REMARK   10  A    between atoms: _24  and  _25
REMARK   11  A    between atoms: _24  and  _27
REMARK   12  A    between atoms: _27  and  _28
REMARK   13  A    between atoms: _28  and  _29
REMARK   14  A    between atoms: _32  and  _34
REMARK   15  A    between atoms: _34  and  _35
REMARK   16  A    between atoms: _34  and  _37
REMARK   17  A    between atoms: _37  and  _38
REMARK   18  A    between atoms: _41  and  _43
REMARK   19  A    between atoms: _43  and  _44
REMARK   20  A    between atoms: _43  and  _46
REMARK   21  A    between atoms: _46  and  _47
REMARK   22  A    between atoms: _50  and  _52
REMARK   23  A    between atoms: _52  and  _53
REMARK   24  A    between atoms: _52  and  _55
REMARK   25  A    between atoms: _55  and  _56
REMARK   26  A    between atoms: _58  and  _60
REMARK   27  A    between atoms: _60  and  _61
REMARK   28  A    between atoms: _60  and  _63
REMARK   29  A    between atoms: _63  and  _64
REMARK   30  A    between atoms: _69  and  _71
REMARK   31  A    between atoms: _71  and  _72
REMARK   32  A    between atoms: _71  and  _74
REMARK   33  A    between atoms: _74  and  _75
REMARK   34  A    between atoms: _77  and  _79
REMARK   35  A    between atoms: _79  and  _80
REMARK   36  A    between atoms: _79  and  _82
REMARK   37  A    between atoms: _82  and  _83
REMARK   38  A    between atoms: _85  and  _87
REMARK   39  A    between atoms: _87  and  _88
REMARK   40  A    between atoms: _87  and  _90
REMARK   41  A    between atoms: _90  and  _91
REMARK   42  A    between atoms: _94  and  _96
REMARK   43  A    between atoms: _96  and  _97
REMARK   44  A    between atoms: _100  and  _102
REMARK   45  A    between atoms: _102  and  _103
REMARK   46  A    between atoms: _102  and  _105
REMARK   47  A    between atoms: _105  and  _106
REMARK   48  A    between atoms: _109  and  _111
REMARK   49  A    between atoms: _111  and  _112
REMARK   50  A    between atoms: _111  and  _114
REMARK   51  A    between atoms: _114  and  _115
REMARK   52  A    between atoms: _118  and  _120
REMARK   53  A    between atoms: _120  and  _121
REMARK   54  A    between atoms: _120  and  _123
REMARK   55  A    between atoms: _123  and  _124
REMARK   56  A    between atoms: _124  and  _125
REMARK   57  A    between atoms: _125  and  _126
REMARK   58  A    between atoms: _126  and  _127
REMARK   59  A    between atoms: _131  and  _133
REMARK   60  A    between atoms: _133  and  _134
REMARK   61  A    between atoms: _133  and  _136
REMARK   62  A    between atoms: _136  and  _137
REMARK   63  A    between atoms: _140  and  _142
REMARK   64  A    between atoms: _142  and  _143
REMARK   65  A    between atoms: _142  and  _145
REMARK   66  A    between atoms: _145  and  _146
REMARK   67  A    between atoms: _146  and  _147
REMARK   68  A    between atoms: _150  and  _152
REMARK   69  A    between atoms: _152  and  _153
REMARK   70  A    between atoms: _152  and  _155
REMARK   71  A    between atoms: _155  and  _156
REMARK   72  A    between atoms: _159  and  _161
REMARK   73  A    between atoms: _161  and  _162
REMARK   74  A    between atoms: _161  and  _164
REMARK   75  A    between atoms: _164  and  _165
REMARK   76  A    between atoms: _168  and  _170
REMARK   77  A    between atoms: _170  and  _171
REMARK   78  A    between atoms: _170  and  _173
REMARK   79  A    between atoms: _176  and  _178
REMARK   80  A    between atoms: _178  and  _179
REMARK   81  A    between atoms: _178  and  _181
REMARK   82  A    between atoms: _181  and  _182
REMARK   83  A    between atoms: _185  and  _187
REMARK   84  A    between atoms: _187  and  _188
REMARK   85  A    between atoms: _187  and  _190
REMARK   86  A    between atoms: _190  and  _191
REMARK   87  A    between atoms: _194  and  _196
REMARK   88  A    between atoms: _196  and  _197
REMARK   89  A    between atoms: _199  and  _201
REMARK   90  A    between atoms: _201  and  _202
REMARK   91  A    between atoms: _201  and  _204
REMARK   92  A    between atoms: _204  and  _205
REMARK   93  A    between atoms: _208  and  _210
REMARK   94  A    between atoms: _210  and  _211
REMARK   95  A    between atoms: _213  and  _215
REMARK   96  A    between atoms: _215  and  _216
REMARK   97  A    between atoms: _215  and  _218
REMARK   98  A    between atoms: _218  and  _219
REMARK   99  A    between atoms: _219  and  _220
REMARK  100  A    between atoms: _222  and  _224
REMARK  101  A    between atoms: _224  and  _225
REMARK  102  A    between atoms: _224  and  _227
REMARK  103  A    between atoms: _227  and  _228
REMARK  104  A    between atoms: _231  and  _233
REMARK  105  A    between atoms: _233  and  _234
REMARK  106  A    between atoms: _237  and  _239
REMARK  107  A    between atoms: _239  and  _240
REMARK  108  A    between atoms: _239  and  _242
REMARK  109  A    between atoms: _242  and  _243
REMARK  110  A    between atoms: _246  and  _248
REMARK  111  A    between atoms: _248  and  _249
REMARK  112  A    between atoms: _248  and  _251
REMARK  113  A    between atoms: _251  and  _252
REMARK  114  A    between atoms: _255  and  _257
REMARK  115  A    between atoms: _257  and  _258
REMARK  116  A    between atoms: _257  and  _260
REMARK  117  A    between atoms: _260  and  _261
REMARK  118  A    between atoms: _266  and  _268
REMARK  119  A    between atoms: _268  and  _269
REMARK  120  A    between atoms: _268  and  _271
REMARK  121  A    between atoms: _271  and  _272
REMARK  122  A    between atoms: _277  and  _279
REMARK  123  A    between atoms: _279  and  _280
REMARK  124  A    between atoms: _279  and  _282
REMARK  125  A    between atoms: _282  and  _283
REMARK  126  A    between atoms: _286  and  _288
REMARK  127  A    between atoms: _288  and  _289
REMARK  128  A    between atoms: _291  and  _293
REMARK  129  A    between atoms: _293  and  _294
REMARK  130  A    between atoms: _293  and  _296
REMARK  131  A    between atoms: _296  and  _297
REMARK  132  A    between atoms: _300  and  _302
REMARK  133  A    between atoms: _302  and  _303
REMARK  134  A    between atoms: _302  and  _305
REMARK  135  A    between atoms: _305  and  _306
REMARK  136  A    between atoms: _309  and  _311
REMARK  137  A    between atoms: _311  and  _312
REMARK  138  A    between atoms: _315  and  _317
REMARK  139  A    between atoms: _317  and  _318
REMARK  140  A    between atoms: _320  and  _322
REMARK  141  A    between atoms: _322  and  _323
REMARK  142  A    between atoms: _322  and  _325
REMARK  143  A    between atoms: _325  and  _326
REMARK  144  A    between atoms: _332  and  _334
REMARK  145  A    between atoms: _334  and  _335
REMARK  146  A    between atoms: _337  and  _339
REMARK  147  A    between atoms: _339  and  _340
REMARK  148  A    between atoms: _339  and  _342
REMARK  149  A    between atoms: _345  and  _347
REMARK  150  A    between atoms: _347  and  _348
REMARK  151  A    between atoms: _350  and  _352
REMARK  152  A    between atoms: _352  and  _353
REMARK  153  A    between atoms: _352  and  _355
REMARK  154  A    between atoms: _355  and  _356
REMARK  155  A    between atoms: _362  and  _364
REMARK  156  A    between atoms: _364  and  _365
REMARK  157  A    between atoms: _364  and  _367
REMARK  158  A    between atoms: _367  and  _368
REMARK  159  A    between atoms: _373  and  _374
REMARK  160  A    between atoms: _376  and  _378
REMARK  161  A    between atoms: _378  and  _379
REMARK  162  A    between atoms: _382  and  _384
REMARK  163  A    between atoms: _384  and  _385
REMARK  164  A    between atoms: _384  and  _387
REMARK  165  A    between atoms: _390  and  _392
REMARK  166  A    between atoms: _392  and  _393
REMARK  167  A    between atoms: _392  and  _395
REMARK  168  A    between atoms: _398  and  _400
REMARK  169  A    between atoms: _400  and  _401
REMARK  170  A    between atoms: _400  and  _403
REMARK  171  A    between atoms: _403  and  _404
REMARK  172  A    between atoms: _407  and  _409
REMARK  173  A    between atoms: _409  and  _410
REMARK  174  A    between atoms: _409  and  _412
REMARK  175  A    between atoms: _412  and  _413
REMARK  176  A    between atoms: _416  and  _418
REMARK  177  A    between atoms: _418  and  _419
REMARK  178  A    between atoms: _418  and  _421
REMARK  179  A    between atoms: _421  and  _422
REMARK  180  A    between atoms: _422  and  _423
REMARK  181  A    between atoms: _423  and  _424
REMARK  182  A    between atoms: _424  and  _425
REMARK  183  A    between atoms: _429  and  _431
REMARK  184  A    between atoms: _431  and  _432
REMARK  185  A    between atoms: _431  and  _434
REMARK  186  A    between atoms: _434  and  _435
REMARK  187  A    between atoms: _440  and  _442
REMARK  188  A    between atoms: _442  and  _443
REMARK  189  A    between atoms: _445  and  _447
REMARK  190  A    between atoms: _447  and  _448
REMARK  191  A    between atoms: _447  and  _450
REMARK  192  A    between atoms: _450  and  _451
REMARK  193  A    between atoms: _454  and  _456
REMARK  194  A    between atoms: _456  and  _457
REMARK  195  A    between atoms: _456  and  _459
REMARK  196  A    between atoms: _459  and  _460
REMARK  197  A    between atoms: _460  and  _461
REMARK  198  A    between atoms: _461  and  _462
REMARK  199  A    between atoms: _462  and  _463
REMARK  200  A    between atoms: _467  and  _469
REMARK  201  A    between atoms: _469  and  _470
REMARK  202  A    between atoms: _469  and  _472
REMARK  203  A    between atoms: _475  and  _477
REMARK  204  A    between atoms: _477  and  _478
REMARK  205  A    between atoms: _477  and  _480
REMARK  206  A    between atoms: _480  and  _481
REMARK  207  A    between atoms: _484  and  _486
REMARK  208  A    between atoms: _486  and  _487
REMARK  209  A    between atoms: _486  and  _489
REMARK  210  A    between atoms: _489  and  _490
REMARK  211  A    between atoms: _493  and  _495
REMARK  212  A    between atoms: _495  and  _496
REMARK  213  A    between atoms: _495  and  _498
REMARK  214  A    between atoms: _498  and  _499
REMARK  215  A    between atoms: _502  and  _504
REMARK  216  A    between atoms: _504  and  _505
REMARK  217  A    between atoms: _504  and  _507
REMARK  218  A    between atoms: _507  and  _508
REMARK  219  A    between atoms: _508  and  _509
REMARK  220  A    between atoms: _509  and  _510
REMARK  221  A    between atoms: _510  and  _511
REMARK  222  A    between atoms: _515  and  _517
REMARK  223  A    between atoms: _517  and  _518
REMARK  224  A    between atoms: _517  and  _520
REMARK  225  A    between atoms: _520  and  _521
REMARK  226  A    between atoms: _526  and  _527
REMARK                            x       y       z     vdW  Elec       q    Type
REMARK                         _______ _______ _______ _____ _____    ______ ____
ROOT
ATOM      1  O   HOH     1      25.731   7.587  34.452  0.00  0.00    +0.000 OA
ENDROOT
TORSDOF 0
REMARK  Name = ../refined-set-2016/2uwd/2uwd_pocket.pdb
REMARK  226 active torsions:
REMARK  status: ('A' for Active; 'I' for Inactive)
REMARK    1  A    between atoms: _1  and  _3
REMARK    2  A    between atoms: _3  and  _4
REMARK    3  A    between atoms: _3  and  _6
REMARK    4  A    between atoms: _6  and  _7
REMARK    5  A    between atoms: _13  and  _15
REMARK    6  A    between atoms: _15  and  _16
REMARK    7  A    between atoms: _15  and  _18
REMARK    8  A    between atoms: _18  and  _19
REMARK    9  A    between atoms: _22  and  _24
REMARK   10  A    between atoms: _24  and  _25
REMARK   11  A    between atoms: _24  and  _27
REMARK   12  A    between atoms: _27  and  _28
REMARK   13  A    between atoms: _28  and  _29
REMARK   14  A    between atoms: _32  and  _34
REMARK   15  A    between atoms: _34  and  _35
REMARK   16  A    between atoms: _34  and  _37
REMARK   17  A    between atoms: _37  and  _38
REMARK   18  A    between atoms: _41  and  _43
REMARK   19  A    between atoms: _43  and  _44
REMARK   20  A    between atoms: _43  and  _46
REMARK   21  A    between atoms: _46  and  _47
REMARK   22  A    between atoms: _50  and  _52
REMARK   23  A    between atoms: _52  and  _53
REMARK   24  A    between atoms: _52  and  _55
REMARK   25  A    between atoms: _55  and  _56
REMARK   26  A    between atoms: _58  and  _60
REMARK   27  A    between atoms: _60  and  _61
REMARK   28  A    between atoms: _60  and  _63
REMARK   29  A    between atoms: _63  and  _64
REMARK   30  A    between atoms: _69  and  _71
REMARK   31  A    between atoms: _71  and  _72
REMARK   32  A    between atoms: _71  and  _74
REMARK   33  A    between atoms: _74  and  _75
REMARK   34  A    between atoms: _77  and  _79
REMARK   35  A    between atoms: _79  and  _80
REMARK   36  A    between atoms: _79  and  _82
REMARK   37  A    between atoms: _82  and  _83
REMARK   38  A    between atoms: _85  and  _87
REMARK   39  A    between atoms: _87  and  _88
REMARK   40  A    between atoms: _87  and  _90
REMARK   41  A    between atoms: _90  and  _91
REMARK   42  A    between atoms: _94  and  _96
REMARK   43  A    between atoms: _96  and  _97
REMARK   44  A    between atoms: _100  and  _102
REMARK   45  A    between atoms: _102  and  _103
REMARK   46  A    between atoms: _102  and  _105
REMARK   47  A    between atoms: _105  and  _106
REMARK   48  A    between atoms: _109  and  _111
REMARK   49  A    between atoms: _111  and  _112
REMARK   50  A    between atoms: _111  and  _114
REMARK   51  A    between atoms: _114  and  _115
REMARK   52  A    between atoms: _118  and  _120
REMARK   53  A    between atoms: _120  and  _121
REMARK   54  A    between atoms: _120  and  _123
REMARK   55  A    between atoms: _123  and  _124
REMARK   56  A    between atoms: _124  and  _125
REMARK   57  A    between atoms: _125  and  _126
REMARK   58  A    between atoms: _126  and  _127
REMARK   59  A    between atoms: _131  and  _133
REMARK   60  A    between atoms: _133  and  _134
REMARK   61  A    between atoms: _133  and  _136
REMARK   62  A    between atoms: _136  and  _137
REMARK   63  A    between atoms: _140  and  _142
REMARK   64  A    between atoms: _142  and  _143
REMARK   65  A    between atoms: _142  and  _145
REMARK   66  A    between atoms: _145  and  _146
REMARK   67  A    between atoms: _146  and  _147
REMARK   68  A    between atoms: _150  and  _152
REMARK   69  A    between atoms: _152  and  _153
REMARK   70  A    between atoms: _152  and  _155
REMARK   71  A    between atoms: _155  and  _156
REMARK   72  A    between atoms: _159  and  _161
REMARK   73  A    between atoms: _161  and  _162
REMARK   74  A    between atoms: _161  and  _164
REMARK   75  A    between atoms: _164  and  _165
REMARK   76  A    between atoms: _168  and  _170
REMARK   77  A    between atoms: _170  and  _171
REMARK   78  A    between atoms: _170  and  _173
REMARK   79  A    between atoms: _176  and  _178
REMARK   80  A    between atoms: _178  and  _179
REMARK   81  A    between atoms: _178  and  _181
REMARK   82  A    between atoms: _181  and  _182
REMARK   83  A    between atoms: _185  and  _187
REMARK   84  A    between atoms: _187  and  _188
REMARK   85  A    between atoms: _187  and  _190
REMARK   86  A    between atoms: _190  and  _191
REMARK   87  A    between atoms: _194  and  _196
REMARK   88  A    between atoms: _196  and  _197
REMARK   89  A    between atoms: _199  and  _201
REMARK   90  A    between atoms: _201  and  _202
REMARK   91  A    between atoms: _201  and  _204
REMARK   92  A    between atoms: _204  and  _205
REMARK   93  A    between atoms: _208  and  _210
REMARK   94  A    between atoms: _210  and  _211
REMARK   95  A    between atoms: _213  and  _215
REMARK   96  A    between atoms: _215  and  _216
REMARK   97  A    between atoms: _215  and  _218
REMARK   98  A    between atoms: _218  and  _219
REMARK   99  A    between atoms: _219  and  _220
REMARK  100  A    between atoms: _222  and  _224
REMARK  101  A    between atoms: _224  and  _225
REMARK  102  A    between atoms: _224  and  _227
REMARK  103  A    between atoms: _227  and  _228
REMARK  104  A    between atoms: _231  and  _233
REMARK  105  A    between atoms: _233  and  _234
REMARK  106  A    between atoms: _237  and  _239
REMARK  107  A    between atoms: _239  and  _240
REMARK  108  A    between atoms: _239  and  _242
REMARK  109  A    between atoms: _242  and  _243
REMARK  110  A    between atoms: _246  and  _248
REMARK  111  A    between atoms: _248  and  _249
REMARK  112  A    between atoms: _248  and  _251
REMARK  113  A    between atoms: _251  and  _252
REMARK  114  A    between atoms: _255  and  _257
REMARK  115  A    between atoms: _257  and  _258
REMARK  116  A    between atoms: _257  and  _260
REMARK  117  A    between atoms: _260  and  _261
REMARK  118  A    between atoms: _266  and  _268
REMARK  119  A    between atoms: _268  and  _269
REMARK  120  A    between atoms: _268  and  _271
REMARK  121  A    between atoms: _271  and  _272
REMARK  122  A    between atoms: _277  and  _279
REMARK  123  A    between atoms: _279  and  _280
REMARK  124  A    between atoms: _279  and  _282
REMARK  125  A    between atoms: _282  and  _283
REMARK  126  A    between atoms: _286  and  _288
REMARK  127  A    between atoms: _288  and  _289
REMARK  128  A    between atoms: _291  and  _293
REMARK  129  A    between atoms: _293  and  _294
REMARK  130  A    between atoms: _293  and  _296
REMARK  131  A    between atoms: _296  and  _297
REMARK  132  A    between atoms: _300  and  _302
REMARK  133  A    between atoms: _302  and  _303
REMARK  134  A    between atoms: _302  and  _305
REMARK  135  A    between atoms: _305  and  _306
REMARK  136  A    between atoms: _309  and  _311
REMARK  137  A    between atoms: _311  and  _312
REMARK  138  A    between atoms: _315  and  _317
REMARK  139  A    between atoms: _317  and  _318
REMARK  140  A    between atoms: _320  and  _322
REMARK  141  A    between atoms: _322  and  _323
REMARK  142  A    between atoms: _322  and  _325
REMARK  143  A    between atoms: _325  and  _326
REMARK  144  A    between atoms: _332  and  _334
REMARK  145  A    between atoms: _334  and  _335
REMARK  146  A    between atoms: _337  and  _339
REMARK  147  A    between atoms: _339  and  _340
REMARK  148  A    between atoms: _339  and  _342
REMARK  149  A    between atoms: _345  and  _347
REMARK  150  A    between atoms: _347  and  _348
REMARK  151  A    between atoms: _350  and  _352
REMARK  152  A    between atoms: _352  and  _353
REMARK  153  A    between atoms: _352  and  _355
REMARK  154  A    between atoms: _355  and  _356
REMARK  155  A    between atoms: _362  and  _364
REMARK  156  A    between atoms: _364  and  _365
REMARK  157  A    between atoms: _364  and  _367
REMARK  158  A    between atoms: _367  and  _368
REMARK  159  A    between atoms: _373  and  _374
REMARK  160  A    between atoms: _376  and  _378
REMARK  161  A    between atoms: _378  and  _379
REMARK  162  A    between atoms: _382  and  _384
REMARK  163  A    between atoms: _384  and  _385
REMARK  164  A    between atoms: _384  and  _387
REMARK  165  A    between atoms: _390  and  _392
REMARK  166  A    between atoms: _392  and  _393
REMARK  167  A    between atoms: _392  and  _395
REMARK  168  A    between atoms: _398  and  _400
REMARK  169  A    between atoms: _400  and  _401
REMARK  170  A    between atoms: _400  and  _403
REMARK  171  A    between atoms: _403  and  _404
REMARK  172  A    between atoms: _407  and  _409
REMARK  173  A    between atoms: _409  and  _410
REMARK  174  A    between atoms: _409  and  _412
REMARK  175  A    between atoms: _412  and  _413
REMARK  176  A    between atoms: _416  and  _418
REMARK  177  A    between atoms: _418  and  _419
REMARK  178  A    between atoms: _418  and  _421
REMARK  179  A    between atoms: _421  and  _422
REMARK  180  A    between atoms: _422  and  _423
REMARK  181  A    between atoms: _423  and  _424
REMARK  182  A    between atoms: _424  and  _425
REMARK  183  A    between atoms: _429  and  _431
REMARK  184  A    between atoms: _431  and  _432
REMARK  185  A    between atoms: _431  and  _434
REMARK  186  A    between atoms: _434  and  _435
REMARK  187  A    between atoms: _440  and  _442
REMARK  188  A    between atoms: _442  and  _443
REMARK  189  A    between atoms: _445  and  _447
REMARK  190  A    between atoms: _447  and  _448
REMARK  191  A    between atoms: _447  and  _450
REMARK  192  A    between atoms: _450  and  _451
REMARK  193  A    between atoms: _454  and  _456
REMARK  194  A    between atoms: _456  and  _457
REMARK  195  A    between atoms: _456  and  _459
REMARK  196  A    between atoms: _459  and  _460
REMARK  197  A    between atoms: _460  and  _461
REMARK  198  A    between atoms: _461  and  _462
REMARK  199  A    between atoms: _462  and  _463
REMARK  200  A    between atoms: _467  and  _469
REMARK  201  A    between atoms: _469  and  _470
REMARK  202  A    between atoms: _469  and  _472
REMARK  203  A    between atoms: _475  and  _477
REMARK  204  A    between atoms: _477  and  _478
REMARK  205  A    between atoms: _477  and  _480
REMARK  206  A    between atoms: _480  and  _481
REMARK  207  A    between atoms: _484  and  _486
REMARK  208  A    between atoms: _486  and  _487
REMARK  209  A    between atoms: _486  and  _489
REMARK  210  A    between atoms: _489  and  _490
REMARK  211  A    between atoms: _493  and  _495
REMARK  212  A    between atoms: _495  and  _496
REMARK  213  A    between atoms: _495  and  _498
REMARK  214  A    between atoms: _498  and  _499
REMARK  215  A    between atoms: _502  and  _504
REMARK  216  A    between atoms: _504  and  _505
REMARK  217  A    between atoms: _504  and  _507
REMARK  218  A    between atoms: _507  and  _508
REMARK  219  A    between atoms: _508  and  _509
REMARK  220  A    between atoms: _509  and  _510
REMARK  221  A    between atoms: _510  and  _511
REMARK  222  A    between atoms: _515  and  _517
REMARK  223  A    between atoms: _517  and  _518
REMARK  224  A    between atoms: _517  and  _520
REMARK  225  A    between atoms: _520  and  _521
REMARK  226  A    between atoms: _526  and  _527
REMARK                            x       y       z     vdW  Elec       q    Type
REMARK                         _______ _______ _______ _____ _____    ______ ____
ROOT
ATOM      1  O   HOH     1      36.060   8.222  37.205  0.00  0.00    +0.000 OA
ENDROOT
TORSDOF 0
REMARK  Name = ../refined-set-2016/2uwd/2uwd_pocket.pdb
REMARK  226 active torsions:
REMARK  status: ('A' for Active; 'I' for Inactive)
REMARK    1  A    between atoms: _1  and  _3
REMARK    2  A    between atoms: _3  and  _4
REMARK    3  A    between atoms: _3  and  _6
REMARK    4  A    between atoms: _6  and  _7
REMARK    5  A    between atoms: _13  and  _15
REMARK    6  A    between atoms: _15  and  _16
REMARK    7  A    between atoms: _15  and  _18
REMARK    8  A    between atoms: _18  and  _19
REMARK    9  A    between atoms: _22  and  _24
REMARK   10  A    between atoms: _24  and  _25
REMARK   11  A    between atoms: _24  and  _27
REMARK   12  A    between atoms: _27  and  _28
REMARK   13  A    between atoms: _28  and  _29
REMARK   14  A    between atoms: _32  and  _34
REMARK   15  A    between atoms: _34  and  _35
REMARK   16  A    between atoms: _34  and  _37
REMARK   17  A    between atoms: _37  and  _38
REMARK   18  A    between atoms: _41  and  _43
REMARK   19  A    between atoms: _43  and  _44
REMARK   20  A    between atoms: _43  and  _46
REMARK   21  A    between atoms: _46  and  _47
REMARK   22  A    between atoms: _50  and  _52
REMARK   23  A    between atoms: _52  and  _53
REMARK   24  A    between atoms: _52  and  _55
REMARK   25  A    between atoms: _55  and  _56
REMARK   26  A    between atoms: _58  and  _60
REMARK   27  A    between atoms: _60  and  _61
REMARK   28  A    between atoms: _60  and  _63
REMARK   29  A    between atoms: _63  and  _64
REMARK   30  A    between atoms: _69  and  _71
REMARK   31  A    between atoms: _71  and  _72
REMARK   32  A    between atoms: _71  and  _74
REMARK   33  A    between atoms: _74  and  _75
REMARK   34  A    between atoms: _77  and  _79
REMARK   35  A    between atoms: _79  and  _80
REMARK   36  A    between atoms: _79  and  _82
REMARK   37  A    between atoms: _82  and  _83
REMARK   38  A    between atoms: _85  and  _87
REMARK   39  A    between atoms: _87  and  _88
REMARK   40  A    between atoms: _87  and  _90
REMARK   41  A    between atoms: _90  and  _91
REMARK   42  A    between atoms: _94  and  _96
REMARK   43  A    between atoms: _96  and  _97
REMARK   44  A    between atoms: _100  and  _102
REMARK   45  A    between atoms: _102  and  _103
REMARK   46  A    between atoms: _102  and  _105
REMARK   47  A    between atoms: _105  and  _106
REMARK   48  A    between atoms: _109  and  _111
REMARK   49  A    between atoms: _111  and  _112
REMARK   50  A    between atoms: _111  and  _114
REMARK   51  A    between atoms: _114  and  _115
REMARK   52  A    between atoms: _118  and  _120
REMARK   53  A    between atoms: _120  and  _121
REMARK   54  A    between atoms: _120  and  _123
REMARK   55  A    between atoms: _123  and  _124
REMARK   56  A    between atoms: _124  and  _125
REMARK   57  A    between atoms: _125  and  _126
REMARK   58  A    between atoms: _126  and  _127
REMARK   59  A    between atoms: _131  and  _133
REMARK   60  A    between atoms: _133  and  _134
REMARK   61  A    between atoms: _133  and  _136
REMARK   62  A    between atoms: _136  and  _137
REMARK   63  A    between atoms: _140  and  _142
REMARK   64  A    between atoms: _142  and  _143
REMARK   65  A    between atoms: _142  and  _145
REMARK   66  A    between atoms: _145  and  _146
REMARK   67  A    between atoms: _146  and  _147
REMARK   68  A    between atoms: _150  and  _152
REMARK   69  A    between atoms: _152  and  _153
REMARK   70  A    between atoms: _152  and  _155
REMARK   71  A    between atoms: _155  and  _156
REMARK   72  A    between atoms: _159  and  _161
REMARK   73  A    between atoms: _161  and  _162
REMARK   74  A    between atoms: _161  and  _164
REMARK   75  A    between atoms: _164  and  _165
REMARK   76  A    between atoms: _168  and  _170
REMARK   77  A    between atoms: _170  and  _171
REMARK   78  A    between atoms: _170  and  _173
REMARK   79  A    between atoms: _176  and  _178
REMARK   80  A    between atoms: _178  and  _179
REMARK   81  A    between atoms: _178  and  _181
REMARK   82  A    between atoms: _181  and  _182
REMARK   83  A    between atoms: _185  and  _187
REMARK   84  A    between atoms: _187  and  _188
REMARK   85  A    between atoms: _187  and  _190
REMARK   86  A    between atoms: _190  and  _191
REMARK   87  A    between atoms: _194  and  _196
REMARK   88  A    between atoms: _196  and  _197
REMARK   89  A    between atoms: _199  and  _201
REMARK   90  A    between atoms: _201  and  _202
REMARK   91  A    between atoms: _201  and  _204
REMARK   92  A    between atoms: _204  and  _205
REMARK   93  A    between atoms: _208  and  _210
REMARK   94  A    between atoms: _210  and  _211
REMARK   95  A    between atoms: _213  and  _215
REMARK   96  A    between atoms: _215  and  _216
REMARK   97  A    between atoms: _215  and  _218
REMARK   98  A    between atoms: _218  and  _219
REMARK   99  A    between atoms: _219  and  _220
REMARK  100  A    between atoms: _222  and  _224
REMARK  101  A    between atoms: _224  and  _225
REMARK  102  A    between atoms: _224  and  _227
REMARK  103  A    between atoms: _227  and  _228
REMARK  104  A    between atoms: _231  and  _233
REMARK  105  A    between atoms: _233  and  _234
REMARK  106  A    between atoms: _237  and  _239
REMARK  107  A    between atoms: _239  and  _240
REMARK  108  A    between atoms: _239  and  _242
REMARK  109  A    between atoms: _242  and  _243
REMARK  110  A    between atoms: _246  and  _248
REMARK  111  A    between atoms: _248  and  _249
REMARK  112  A    between atoms: _248  and  _251
REMARK  113  A    between atoms: _251  and  _252
REMARK  114  A    between atoms: _255  and  _257
REMARK  115  A    between atoms: _257  and  _258
REMARK  116  A    between atoms: _257  and  _260
REMARK  117  A    between atoms: _260  and  _261
REMARK  118  A    between atoms: _266  and  _268
REMARK  119  A    between atoms: _268  and  _269
REMARK  120  A    between atoms: _268  and  _271
REMARK  121  A    between atoms: _271  and  _272
REMARK  122  A    between atoms: _277  and  _279
REMARK  123  A    between atoms: _279  and  _280
REMARK  124  A    between atoms: _279  and  _282
REMARK  125  A    between atoms: _282  and  _283
REMARK  126  A    between atoms: _286  and  _288
REMARK  127  A    between atoms: _288  and  _289
REMARK  128  A    between atoms: _291  and  _293
REMARK  129  A    between atoms: _293  and  _294
REMARK  130  A    between atoms: _293  and  _296
REMARK  131  A    between atoms: _296  and  _297
REMARK  132  A    between atoms: _300  and  _302
REMARK  133  A    between atoms: _302  and  _303
REMARK  134  A    between atoms: _302  and  _305
REMARK  135  A    between atoms: _305  and  _306
REMARK  136  A    between atoms: _309  and  _311
REMARK  137  A    between atoms: _311  and  _312
REMARK  138  A    between atoms: _315  and  _317
REMARK  139  A    between atoms: _317  and  _318
REMARK  140  A    between atoms: _320  and  _322
REMARK  141  A    between atoms: _322  and  _323
REMARK  142  A    between atoms: _322  and  _325
REMARK  143  A    between atoms: _325  and  _326
REMARK  144  A    between atoms: _332  and  _334
REMARK  145  A    between atoms: _334  and  _335
REMARK  146  A    between atoms: _337  and  _339
REMARK  147  A    between atoms: _339  and  _340
REMARK  148  A    between atoms: _339  and  _342
REMARK  149  A    between atoms: _345  and  _347
REMARK  150  A    between atoms: _347  and  _348
REMARK  151  A    between atoms: _350  and  _352
REMARK  152  A    between atoms: _352  and  _353
REMARK  153  A    between atoms: _352  and  _355
REMARK  154  A    between atoms: _355  and  _356
REMARK  155  A    between atoms: _362  and  _364
REMARK  156  A    between atoms: _364  and  _365
REMARK  157  A    between atoms: _364  and  _367
REMARK  158  A    between atoms: _367  and  _368
REMARK  159  A    between atoms: _373  and  _374
REMARK  160  A    between atoms: _376  and  _378
REMARK  161  A    between atoms: _378  and  _379
REMARK  162  A    between atoms: _382  and  _384
REMARK  163  A    between atoms: _384  and  _385
REMARK  164  A    between atoms: _384  and  _387
REMARK  165  A    between atoms: _390  and  _392
REMARK  166  A    between atoms: _392  and  _393
REMARK  167  A    between atoms: _392  and  _395
REMARK  168  A    between atoms: _398  and  _400
REMARK  169  A    between atoms: _400  and  _401
REMARK  170  A    between atoms: _400  and  _403
REMARK  171  A    between atoms: _403  and  _404
REMARK  172  A    between atoms: _407  and  _409
REMARK  173  A    between atoms: _409  and  _410
REMARK  174  A    between atoms: _409  and  _412
REMARK  175  A    between atoms: _412  and  _413
REMARK  176  A    between atoms: _416  and  _418
REMARK  177  A    between atoms: _418  and  _419
REMARK  178  A    between atoms: _418  and  _421
REMARK  179  A    between atoms: _421  and  _422
REMARK  180  A    between atoms: _422  and  _423
REMARK  181  A    between atoms: _423  and  _424
REMARK  182  A    between atoms: _424  and  _425
REMARK  183  A    between atoms: _429  and  _431
REMARK  184  A    between atoms: _431  and  _432
REMARK  185  A    between atoms: _431  and  _434
REMARK  186  A    between atoms: _434  and  _435
REMARK  187  A    between atoms: _440  and  _442
REMARK  188  A    between atoms: _442  and  _443
REMARK  189  A    between atoms: _445  and  _447
REMARK  190  A    between atoms: _447  and  _448
REMARK  191  A    between atoms: _447  and  _450
REMARK  192  A    between atoms: _450  and  _451
REMARK  193  A    between atoms: _454  and  _456
REMARK  194  A    between atoms: _456  and  _457
REMARK  195  A    between atoms: _456  and  _459
REMARK  196  A    between atoms: _459  and  _460
REMARK  197  A    between atoms: _460  and  _461
REMARK  198  A    between atoms: _461  and  _462
REMARK  199  A    between atoms: _462  and  _463
REMARK  200  A    between atoms: _467  and  _469
REMARK  201  A    between atoms: _469  and  _470
REMARK  202  A    between atoms: _469  and  _472
REMARK  203  A    between atoms: _475  and  _477
REMARK  204  A    between atoms: _477  and  _478
REMARK  205  A    between atoms: _477  and  _480
REMARK  206  A    between atoms: _480  and  _481
REMARK  207  A    between atoms: _484  and  _486
REMARK  208  A    between atoms: _486  and  _487
REMARK  209  A    between atoms: _486  and  _489
REMARK  210  A    between atoms: _489  and  _490
REMARK  211  A    between atoms: _493  and  _495
REMARK  212  A    between atoms: _495  and  _496
REMARK  213  A    between atoms: _495  and  _498
REMARK  214  A    between atoms: _498  and  _499
REMARK  215  A    between atoms: _502  and  _504
REMARK  216  A    between atoms: _504  and  _505
REMARK  217  A    between atoms: _504  and  _507
REMARK  218  A    between atoms: _507  and  _508
REMARK  219  A    between atoms: _508  and  _509
REMARK  220  A    between atoms: _509  and  _510
REMARK  221  A    between atoms: _510  and  _511
REMARK  222  A    between atoms: _515  and  _517
REMARK  223  A    between atoms: _517  and  _518
REMARK  224  A    between atoms: _517  and  _520
REMARK  225  A    between atoms: _520  and  _521
REMARK  226  A    between atoms: _526  and  _527
REMARK                            x       y       z     vdW  Elec       q    Type
REMARK                         _______ _______ _______ _____ _____    ______ ____
ROOT
ATOM      1  O   HOH     1      34.139   6.048  34.468  0.00  0.00    +0.000 OA
ENDROOT
TORSDOF 0
REMARK  Name = ../refined-set-2016/2uwd/2uwd_pocket.pdb
REMARK  226 active torsions:
REMARK  status: ('A' for Active; 'I' for Inactive)
REMARK    1  A    between atoms: _1  and  _3
REMARK    2  A    between atoms: _3  and  _4
REMARK    3  A    between atoms: _3  and  _6
REMARK    4  A    between atoms: _6  and  _7
REMARK    5  A    between atoms: _13  and  _15
REMARK    6  A    between atoms: _15  and  _16
REMARK    7  A    between atoms: _15  and  _18
REMARK    8  A    between atoms: _18  and  _19
REMARK    9  A    between atoms: _22  and  _24
REMARK   10  A    between atoms: _24  and  _25
REMARK   11  A    between atoms: _24  and  _27
REMARK   12  A    between atoms: _27  and  _28
REMARK   13  A    between atoms: _28  and  _29
REMARK   14  A    between atoms: _32  and  _34
REMARK   15  A    between atoms: _34  and  _35
REMARK   16  A    between atoms: _34  and  _37
REMARK   17  A    between atoms: _37  and  _38
REMARK   18  A    between atoms: _41  and  _43
REMARK   19  A    between atoms: _43  and  _44
REMARK   20  A    between atoms: _43  and  _46
REMARK   21  A    between atoms: _46  and  _47
REMARK   22  A    between atoms: _50  and  _52
REMARK   23  A    between atoms: _52  and  _53
REMARK   24  A    between atoms: _52  and  _55
REMARK   25  A    between atoms: _55  and  _56
REMARK   26  A    between atoms: _58  and  _60
REMARK   27  A    between atoms: _60  and  _61
REMARK   28  A    between atoms: _60  and  _63
REMARK   29  A    between atoms: _63  and  _64
REMARK   30  A    between atoms: _69  and  _71
REMARK   31  A    between atoms: _71  and  _72
REMARK   32  A    between atoms: _71  and  _74
REMARK   33  A    between atoms: _74  and  _75
REMARK   34  A    between atoms: _77  and  _79
REMARK   35  A    between atoms: _79  and  _80
REMARK   36  A    between atoms: _79  and  _82
REMARK   37  A    between atoms: _82  and  _83
REMARK   38  A    between atoms: _85  and  _87
REMARK   39  A    between atoms: _87  and  _88
REMARK   40  A    between atoms: _87  and  _90
REMARK   41  A    between atoms: _90  and  _91
REMARK   42  A    between atoms: _94  and  _96
REMARK   43  A    between atoms: _96  and  _97
REMARK   44  A    between atoms: _100  and  _102
REMARK   45  A    between atoms: _102  and  _103
REMARK   46  A    between atoms: _102  and  _105
REMARK   47  A    between atoms: _105  and  _106
REMARK   48  A    between atoms: _109  and  _111
REMARK   49  A    between atoms: _111  and  _112
REMARK   50  A    between atoms: _111  and  _114
REMARK   51  A    between atoms: _114  and  _115
REMARK   52  A    between atoms: _118  and  _120
REMARK   53  A    between atoms: _120  and  _121
REMARK   54  A    between atoms: _120  and  _123
REMARK   55  A    between atoms: _123  and  _124
REMARK   56  A    between atoms: _124  and  _125
REMARK   57  A    between atoms: _125  and  _126
REMARK   58  A    between atoms: _126  and  _127
REMARK   59  A    between atoms: _131  and  _133
REMARK   60  A    between atoms: _133  and  _134
REMARK   61  A    between atoms: _133  and  _136
REMARK   62  A    between atoms: _136  and  _137
REMARK   63  A    between atoms: _140  and  _142
REMARK   64  A    between atoms: _142  and  _143
REMARK   65  A    between atoms: _142  and  _145
REMARK   66  A    between atoms: _145  and  _146
REMARK   67  A    between atoms: _146  and  _147
REMARK   68  A    between atoms: _150  and  _152
REMARK   69  A    between atoms: _152  and  _153
REMARK   70  A    between atoms: _152  and  _155
REMARK   71  A    between atoms: _155  and  _156
REMARK   72  A    between atoms: _159  and  _161
REMARK   73  A    between atoms: _161  and  _162
REMARK   74  A    between atoms: _161  and  _164
REMARK   75  A    between atoms: _164  and  _165
REMARK   76  A    between atoms: _168  and  _170
REMARK   77  A    between atoms: _170  and  _171
REMARK   78  A    between atoms: _170  and  _173
REMARK   79  A    between atoms: _176  and  _178
REMARK   80  A    between atoms: _178  and  _179
REMARK   81  A    between atoms: _178  and  _181
REMARK   82  A    between atoms: _181  and  _182
REMARK   83  A    between atoms: _185  and  _187
REMARK   84  A    between atoms: _187  and  _188
REMARK   85  A    between atoms: _187  and  _190
REMARK   86  A    between atoms: _190  and  _191
REMARK   87  A    between atoms: _194  and  _196
REMARK   88  A    between atoms: _196  and  _197
REMARK   89  A    between atoms: _199  and  _201
REMARK   90  A    between atoms: _201  and  _202
REMARK   91  A    between atoms: _201  and  _204
REMARK   92  A    between atoms: _204  and  _205
REMARK   93  A    between atoms: _208  and  _210
REMARK   94  A    between atoms: _210  and  _211
REMARK   95  A    between atoms: _213  and  _215
REMARK   96  A    between atoms: _215  and  _216
REMARK   97  A    between atoms: _215  and  _218
REMARK   98  A    between atoms: _218  and  _219
REMARK   99  A    between atoms: _219  and  _220
REMARK  100  A    between atoms: _222  and  _224
REMARK  101  A    between atoms: _224  and  _225
REMARK  102  A    between atoms: _224  and  _227
REMARK  103  A    between atoms: _227  and  _228
REMARK  104  A    between atoms: _231  and  _233
REMARK  105  A    between atoms: _233  and  _234
REMARK  106  A    between atoms: _237  and  _239
REMARK  107  A    between atoms: _239  and  _240
REMARK  108  A    between atoms: _239  and  _242
REMARK  109  A    between atoms: _242  and  _243
REMARK  110  A    between atoms: _246  and  _248
REMARK  111  A    between atoms: _248  and  _249
REMARK  112  A    between atoms: _248  and  _251
REMARK  113  A    between atoms: _251  and  _252
REMARK  114  A    between atoms: _255  and  _257
REMARK  115  A    between atoms: _257  and  _258
REMARK  116  A    between atoms: _257  and  _260
REMARK  117  A    between atoms: _260  and  _261
REMARK  118  A    between atoms: _266  and  _268
REMARK  119  A    between atoms: _268  and  _269
REMARK  120  A    between atoms: _268  and  _271
REMARK  121  A    between atoms: _271  and  _272
REMARK  122  A    between atoms: _277  and  _279
REMARK  123  A    between atoms: _279  and  _280
REMARK  124  A    between atoms: _279  and  _282
REMARK  125  A    between atoms: _282  and  _283
REMARK  126  A    between atoms: _286  and  _288
REMARK  127  A    between atoms: _288  and  _289
REMARK  128  A    between atoms: _291  and  _293
REMARK  129  A    between atoms: _293  and  _294
REMARK  130  A    between atoms: _293  and  _296
REMARK  131  A    between atoms: _296  and  _297
REMARK  132  A    between atoms: _300  and  _302
REMARK  133  A    between atoms: _302  and  _303
REMARK  134  A    between atoms: _302  and  _305
REMARK  135  A    between atoms: _305  and  _306
REMARK  136  A    between atoms: _309  and  _311
REMARK  137  A    between atoms: _311  and  _312
REMARK  138  A    between atoms: _315  and  _317
REMARK  139  A    between atoms: _317  and  _318
REMARK  140  A    between atoms: _320  and  _322
REMARK  141  A    between atoms: _322  and  _323
REMARK  142  A    between atoms: _322  and  _325
REMARK  143  A    between atoms: _325  and  _326
REMARK  144  A    between atoms: _332  and  _334
REMARK  145  A    between atoms: _334  and  _335
REMARK  146  A    between atoms: _337  and  _339
REMARK  147  A    between atoms: _339  and  _340
REMARK  148  A    between atoms: _339  and  _342
REMARK  149  A    between atoms: _345  and  _347
REMARK  150  A    between atoms: _347  and  _348
REMARK  151  A    between atoms: _350  and  _352
REMARK  152  A    between atoms: _352  and  _353
REMARK  153  A    between atoms: _352  and  _355
REMARK  154  A    between atoms: _355  and  _356
REMARK  155  A    between atoms: _362  and  _364
REMARK  156  A    between atoms: _364  and  _365
REMARK  157  A    between atoms: _364  and  _367
REMARK  158  A    between atoms: _367  and  _368
REMARK  159  A    between atoms: _373  and  _374
REMARK  160  A    between atoms: _376  and  _378
REMARK  161  A    between atoms: _378  and  _379
REMARK  162  A    between atoms: _382  and  _384
REMARK  163  A    between atoms: _384  and  _385
REMARK  164  A    between atoms: _384  and  _387
REMARK  165  A    between atoms: _390  and  _392
REMARK  166  A    between atoms: _392  and  _393
REMARK  167  A    between atoms: _392  and  _395
REMARK  168  A    between atoms: _398  and  _400
REMARK  169  A    between atoms: _400  and  _401
REMARK  170  A    between atoms: _400  and  _403
REMARK  171  A    between atoms: _403  and  _404
REMARK  172  A    between atoms: _407  and  _409
REMARK  173  A    between atoms: _409  and  _410
REMARK  174  A    between atoms: _409  and  _412
REMARK  175  A    between atoms: _412  and  _413
REMARK  176  A    between atoms: _416  and  _418
REMARK  177  A    between atoms: _418  and  _419
REMARK  178  A    between atoms: _418  and  _421
REMARK  179  A    between atoms: _421  and  _422
REMARK  180  A    between atoms: _422  and  _423
REMARK  181  A    between atoms: _423  and  _424
REMARK  182  A    between atoms: _424  and  _425
REMARK  183  A    between atoms: _429  and  _431
REMARK  184  A    between atoms: _431  and  _432
REMARK  185  A    between atoms: _431  and  _434
REMARK  186  A    between atoms: _434  and  _435
REMARK  187  A    between atoms: _440  and  _442
REMARK  188  A    between atoms: _442  and  _443
REMARK  189  A    between atoms: _445  and  _447
REMARK  190  A    between atoms: _447  and  _448
REMARK  191  A    between atoms: _447  and  _450
REMARK  192  A    between atoms: _450  and  _451
REMARK  193  A    between atoms: _454  and  _456
REMARK  194  A    between atoms: _456  and  _457
REMARK  195  A    between atoms: _456  and  _459
REMARK  196  A    between atoms: _459  and  _460
REMARK  197  A    between atoms: _460  and  _461
REMARK  198  A    between atoms: _461  and  _462
REMARK  199  A    between atoms: _462  and  _463
REMARK  200  A    between atoms: _467  and  _469
REMARK  201  A    between atoms: _469  and  _470
REMARK  202  A    between atoms: _469  and  _472
REMARK  203  A    between atoms: _475  and  _477
REMARK  204  A    between atoms: _477  and  _478
REMARK  205  A    between atoms: _477  and  _480
REMARK  206  A    between atoms: _480  and  _481
REMARK  207  A    between atoms: _484  and  _486
REMARK  208  A    between atoms: _486  and  _487
REMARK  209  A    between atoms: _486  and  _489
REMARK  210  A    between atoms: _489  and  _490
REMARK  211  A    between atoms: _493  and  _495
REMARK  212  A    between atoms: _495  and  _496
REMARK  213  A    between atoms: _495  and  _498
REMARK  214  A    between atoms: _498  and  _499
REMARK  215  A    between atoms: _502  and  _504
REMARK  216  A    between atoms: _504  and  _505
REMARK  217  A    between atoms: _504  and  _507
REMARK  218  A    between atoms: _507  and  _508
REMARK  219  A    between atoms: _508  and  _509
REMARK  220  A    between atoms: _509  and  _510
REMARK  221  A    between atoms: _510  and  _511
REMARK  222  A    between atoms: _515  and  _517
REMARK  223  A    between atoms: _517  and  _518
REMARK  224  A    between atoms: _517  and  _520
REMARK  225  A    between atoms: _520  and  _521
REMARK  226  A    between atoms: _526  and  _527
REMARK                            x       y       z     vdW  Elec       q    Type
REMARK                         _______ _______ _______ _____ _____    ______ ____
ROOT
ATOM      1  O   HOH     1      38.464   7.304  35.699  0.00  0.00    +0.000 OA
ENDROOT
TORSDOF 0
REMARK  Name = ../refined-set-2016/2uwd/2uwd_pocket.pdb
REMARK  226 active torsions:
REMARK  status: ('A' for Active; 'I' for Inactive)
REMARK    1  A    between atoms: _1  and  _3
REMARK    2  A    between atoms: _3  and  _4
REMARK    3  A    between atoms: _3  and  _6
REMARK    4  A    between atoms: _6  and  _7
REMARK    5  A    between atoms: _13  and  _15
REMARK    6  A    between atoms: _15  and  _16
REMARK    7  A    between atoms: _15  and  _18
REMARK    8  A    between atoms: _18  and  _19
REMARK    9  A    between atoms: _22  and  _24
REMARK   10  A    between atoms: _24  and  _25
REMARK   11  A    between atoms: _24  and  _27
REMARK   12  A    between atoms: _27  and  _28
REMARK   13  A    between atoms: _28  and  _29
REMARK   14  A    between atoms: _32  and  _34
REMARK   15  A    between atoms: _34  and  _35
REMARK   16  A    between atoms: _34  and  _37
REMARK   17  A    between atoms: _37  and  _38
REMARK   18  A    between atoms: _41  and  _43
REMARK   19  A    between atoms: _43  and  _44
REMARK   20  A    between atoms: _43  and  _46
REMARK   21  A    between atoms: _46  and  _47
REMARK   22  A    between atoms: _50  and  _52
REMARK   23  A    between atoms: _52  and  _53
REMARK   24  A    between atoms: _52  and  _55
REMARK   25  A    between atoms: _55  and  _56
REMARK   26  A    between atoms: _58  and  _60
REMARK   27  A    between atoms: _60  and  _61
REMARK   28  A    between atoms: _60  and  _63
REMARK   29  A    between atoms: _63  and  _64
REMARK   30  A    between atoms: _69  and  _71
REMARK   31  A    between atoms: _71  and  _72
REMARK   32  A    between atoms: _71  and  _74
REMARK   33  A    between atoms: _74  and  _75
REMARK   34  A    between atoms: _77  and  _79
REMARK   35  A    between atoms: _79  and  _80
REMARK   36  A    between atoms: _79  and  _82
REMARK   37  A    between atoms: _82  and  _83
REMARK   38  A    between atoms: _85  and  _87
REMARK   39  A    between atoms: _87  and  _88
REMARK   40  A    between atoms: _87  and  _90
REMARK   41  A    between atoms: _90  and  _91
REMARK   42  A    between atoms: _94  and  _96
REMARK   43  A    between atoms: _96  and  _97
REMARK   44  A    between atoms: _100  and  _102
REMARK   45  A    between atoms: _102  and  _103
REMARK   46  A    between atoms: _102  and  _105
REMARK   47  A    between atoms: _105  and  _106
REMARK   48  A    between atoms: _109  and  _111
REMARK   49  A    between atoms: _111  and  _112
REMARK   50  A    between atoms: _111  and  _114
REMARK   51  A    between atoms: _114  and  _115
REMARK   52  A    between atoms: _118  and  _120
REMARK   53  A    between atoms: _120  and  _121
REMARK   54  A    between atoms: _120  and  _123
REMARK   55  A    between atoms: _123  and  _124
REMARK   56  A    between atoms: _124  and  _125
REMARK   57  A    between atoms: _125  and  _126
REMARK   58  A    between atoms: _126  and  _127
REMARK   59  A    between atoms: _131  and  _133
REMARK   60  A    between atoms: _133  and  _134
REMARK   61  A    between atoms: _133  and  _136
REMARK   62  A    between atoms: _136  and  _137
REMARK   63  A    between atoms: _140  and  _142
REMARK   64  A    between atoms: _142  and  _143
REMARK   65  A    between atoms: _142  and  _145
REMARK   66  A    between atoms: _145  and  _146
REMARK   67  A    between atoms: _146  and  _147
REMARK   68  A    between atoms: _150  and  _152
REMARK   69  A    between atoms: _152  and  _153
REMARK   70  A    between atoms: _152  and  _155
REMARK   71  A    between atoms: _155  and  _156
REMARK   72  A    between atoms: _159  and  _161
REMARK   73  A    between atoms: _161  and  _162
REMARK   74  A    between atoms: _161  and  _164
REMARK   75  A    between atoms: _164  and  _165
REMARK   76  A    between atoms: _168  and  _170
REMARK   77  A    between atoms: _170  and  _171
REMARK   78  A    between atoms: _170  and  _173
REMARK   79  A    between atoms: _176  and  _178
REMARK   80  A    between atoms: _178  and  _179
REMARK   81  A    between atoms: _178  and  _181
REMARK   82  A    between atoms: _181  and  _182
REMARK   83  A    between atoms: _185  and  _187
REMARK   84  A    between atoms: _187  and  _188
REMARK   85  A    between atoms: _187  and  _190
REMARK   86  A    between atoms: _190  and  _191
REMARK   87  A    between atoms: _194  and  _196
REMARK   88  A    between atoms: _196  and  _197
REMARK   89  A    between atoms: _199  and  _201
REMARK   90  A    between atoms: _201  and  _202
REMARK   91  A    between atoms: _201  and  _204
REMARK   92  A    between atoms: _204  and  _205
REMARK   93  A    between atoms: _208  and  _210
REMARK   94  A    between atoms: _210  and  _211
REMARK   95  A    between atoms: _213  and  _215
REMARK   96  A    between atoms: _215  and  _216
REMARK   97  A    between atoms: _215  and  _218
REMARK   98  A    between atoms: _218  and  _219
REMARK   99  A    between atoms: _219  and  _220
REMARK  100  A    between atoms: _222  and  _224
REMARK  101  A    between atoms: _224  and  _225
REMARK  102  A    between atoms: _224  and  _227
REMARK  103  A    between atoms: _227  and  _228
REMARK  104  A    between atoms: _231  and  _233
REMARK  105  A    between atoms: _233  and  _234
REMARK  106  A    between atoms: _237  and  _239
REMARK  107  A    between atoms: _239  and  _240
REMARK  108  A    between atoms: _239  and  _242
REMARK  109  A    between atoms: _242  and  _243
REMARK  110  A    between atoms: _246  and  _248
REMARK  111  A    between atoms: _248  and  _249
REMARK  112  A    between atoms: _248  and  _251
REMARK  113  A    between atoms: _251  and  _252
REMARK  114  A    between atoms: _255  and  _257
REMARK  115  A    between atoms: _257  and  _258
REMARK  116  A    between atoms: _257  and  _260
REMARK  117  A    between atoms: _260  and  _261
REMARK  118  A    between atoms: _266  and  _268
REMARK  119  A    between atoms: _268  and  _269
REMARK  120  A    between atoms: _268  and  _271
REMARK  121  A    between atoms: _271  and  _272
REMARK  122  A    between atoms: _277  and  _279
REMARK  123  A    between atoms: _279  and  _280
REMARK  124  A    between atoms: _279  and  _282
REMARK  125  A    between atoms: _282  and  _283
REMARK  126  A    between atoms: _286  and  _288
REMARK  127  A    between atoms: _288  and  _289
REMARK  128  A    between atoms: _291  and  _293
REMARK  129  A    between atoms: _293  and  _294
REMARK  130  A    between atoms: _293  and  _296
REMARK  131  A    between atoms: _296  and  _297
REMARK  132  A    between atoms: _300  and  _302
REMARK  133  A    between atoms: _302  and  _303
REMARK  134  A    between atoms: _302  and  _305
REMARK  135  A    between atoms: _305  and  _306
REMARK  136  A    between atoms: _309  and  _311
REMARK  137  A    between atoms: _311  and  _312
REMARK  138  A    between atoms: _315  and  _317
REMARK  139  A    between atoms: _317  and  _318
REMARK  140  A    between atoms: _320  and  _322
REMARK  141  A    between atoms: _322  and  _323
REMARK  142  A    between atoms: _322  and  _325
REMARK  143  A    between atoms: _325  and  _326
REMARK  144  A    between atoms: _332  and  _334
REMARK  145  A    between atoms: _334  and  _335
REMARK  146  A    between atoms: _337  and  _339
REMARK  147  A    between atoms: _339  and  _340
REMARK  148  A    between atoms: _339  and  _342
REMARK  149  A    between atoms: _345  and  _347
REMARK  150  A    between atoms: _347  and  _348
REMARK  151  A    between atoms: _350  and  _352
REMARK  152  A    between atoms: _352  and  _353
REMARK  153  A    between atoms: _352  and  _355
REMARK  154  A    between atoms: _355  and  _356
REMARK  155  A    between atoms: _362  and  _364
REMARK  156  A    between atoms: _364  and  _365
REMARK  157  A    between atoms: _364  and  _367
REMARK  158  A    between atoms: _367  and  _368
REMARK  159  A    between atoms: _373  and  _374
REMARK  160  A    between atoms: _376  and  _378
REMARK  161  A    between atoms: _378  and  _379
REMARK  162  A    between atoms: _382  and  _384
REMARK  163  A    between atoms: _384  and  _385
REMARK  164  A    between atoms: _384  and  _387
REMARK  165  A    between atoms: _390  and  _392
REMARK  166  A    between atoms: _392  and  _393
REMARK  167  A    between atoms: _392  and  _395
REMARK  168  A    between atoms: _398  and  _400
REMARK  169  A    between atoms: _400  and  _401
REMARK  170  A    between atoms: _400  and  _403
REMARK  171  A    between atoms: _403  and  _404
REMARK  172  A    between atoms: _407  and  _409
REMARK  173  A    between atoms: _409  and  _410
REMARK  174  A    between atoms: _409  and  _412
REMARK  175  A    between atoms: _412  and  _413
REMARK  176  A    between atoms: _416  and  _418
REMARK  177  A    between atoms: _418  and  _419
REMARK  178  A    between atoms: _418  and  _421
REMARK  179  A    between atoms: _421  and  _422
REMARK  180  A    between atoms: _422  and  _423
REMARK  181  A    between atoms: _423  and  _424
REMARK  182  A    between atoms: _424  and  _425
REMARK  183  A    between atoms: _429  and  _431
REMARK  184  A    between atoms: _431  and  _432
REMARK  185  A    between atoms: _431  and  _434
REMARK  186  A    between atoms: _434  and  _435
REMARK  187  A    between atoms: _440  and  _442
REMARK  188  A    between atoms: _442  and  _443
REMARK  189  A    between atoms: _445  and  _447
REMARK  190  A    between atoms: _447  and  _448
REMARK  191  A    between atoms: _447  and  _450
REMARK  192  A    between atoms: _450  and  _451
REMARK  193  A    between atoms: _454  and  _456
REMARK  194  A    between atoms: _456  and  _457
REMARK  195  A    between atoms: _456  and  _459
REMARK  196  A    between atoms: _459  and  _460
REMARK  197  A    between atoms: _460  and  _461
REMARK  198  A    between atoms: _461  and  _462
REMARK  199  A    between atoms: _462  and  _463
REMARK  200  A    between atoms: _467  and  _469
REMARK  201  A    between atoms: _469  and  _470
REMARK  202  A    between atoms: _469  and  _472
REMARK  203  A    between atoms: _475  and  _477
REMARK  204  A    between atoms: _477  and  _478
REMARK  205  A    between atoms: _477  and  _480
REMARK  206  A    between atoms: _480  and  _481
REMARK  207  A    between atoms: _484  and  _486
REMARK  208  A    between atoms: _486  and  _487
REMARK  209  A    between atoms: _486  and  _489
REMARK  210  A    between atoms: _489  and  _490
REMARK  211  A    between atoms: _493  and  _495
REMARK  212  A    between atoms: _495  and  _496
REMARK  213  A    between atoms: _495  and  _498
REMARK  214  A    between atoms: _498  and  _499
REMARK  215  A    between atoms: _502  and  _504
REMARK  216  A    between atoms: _504  and  _505
REMARK  217  A    between atoms: _504  and  _507
REMARK  218  A    between atoms: _507  and  _508
REMARK  219  A    between atoms: _508  and  _509
REMARK  220  A    between atoms: _509  and  _510
REMARK  221  A    between atoms: _510  and  _511
REMARK  222  A    between atoms: _515  and  _517
REMARK  223  A    between atoms: _517  and  _518
REMARK  224  A    between atoms: _517  and  _520
REMARK  225  A    between atoms: _520  and  _521
REMARK  226  A    between atoms: _526  and  _527
REMARK                            x       y       z     vdW  Elec       q    Type
REMARK                         _______ _______ _______ _____ _____    ______ ____
ROOT
ATOM      1  O   HOH     1      40.091   7.685  33.670  0.00  0.00    +0.000 OA
ENDROOT
TORSDOF 0
REMARK  Name = ../refined-set-2016/2uwd/2uwd_pocket.pdb
REMARK  226 active torsions:
REMARK  status: ('A' for Active; 'I' for Inactive)
REMARK    1  A    between atoms: _1  and  _3
REMARK    2  A    between atoms: _3  and  _4
REMARK    3  A    between atoms: _3  and  _6
REMARK    4  A    between atoms: _6  and  _7
REMARK    5  A    between atoms: _13  and  _15
REMARK    6  A    between atoms: _15  and  _16
REMARK    7  A    between atoms: _15  and  _18
REMARK    8  A    between atoms: _18  and  _19
REMARK    9  A    between atoms: _22  and  _24
REMARK   10  A    between atoms: _24  and  _25
REMARK   11  A    between atoms: _24  and  _27
REMARK   12  A    between atoms: _27  and  _28
REMARK   13  A    between atoms: _28  and  _29
REMARK   14  A    between atoms: _32  and  _34
REMARK   15  A    between atoms: _34  and  _35
REMARK   16  A    between atoms: _34  and  _37
REMARK   17  A    between atoms: _37  and  _38
REMARK   18  A    between atoms: _41  and  _43
REMARK   19  A    between atoms: _43  and  _44
REMARK   20  A    between atoms: _43  and  _46
REMARK   21  A    between atoms: _46  and  _47
REMARK   22  A    between atoms: _50  and  _52
REMARK   23  A    between atoms: _52  and  _53
REMARK   24  A    between atoms: _52  and  _55
REMARK   25  A    between atoms: _55  and  _56
REMARK   26  A    between atoms: _58  and  _60
REMARK   27  A    between atoms: _60  and  _61
REMARK   28  A    between atoms: _60  and  _63
REMARK   29  A    between atoms: _63  and  _64
REMARK   30  A    between atoms: _69  and  _71
REMARK   31  A    between atoms: _71  and  _72
REMARK   32  A    between atoms: _71  and  _74
REMARK   33  A    between atoms: _74  and  _75
REMARK   34  A    between atoms: _77  and  _79
REMARK   35  A    between atoms: _79  and  _80
REMARK   36  A    between atoms: _79  and  _82
REMARK   37  A    between atoms: _82  and  _83
REMARK   38  A    between atoms: _85  and  _87
REMARK   39  A    between atoms: _87  and  _88
REMARK   40  A    between atoms: _87  and  _90
REMARK   41  A    between atoms: _90  and  _91
REMARK   42  A    between atoms: _94  and  _96
REMARK   43  A    between atoms: _96  and  _97
REMARK   44  A    between atoms: _100  and  _102
REMARK   45  A    between atoms: _102  and  _103
REMARK   46  A    between atoms: _102  and  _105
REMARK   47  A    between atoms: _105  and  _106
REMARK   48  A    between atoms: _109  and  _111
REMARK   49  A    between atoms: _111  and  _112
REMARK   50  A    between atoms: _111  and  _114
REMARK   51  A    between atoms: _114  and  _115
REMARK   52  A    between atoms: _118  and  _120
REMARK   53  A    between atoms: _120  and  _121
REMARK   54  A    between atoms: _120  and  _123
REMARK   55  A    between atoms: _123  and  _124
REMARK   56  A    between atoms: _124  and  _125
REMARK   57  A    between atoms: _125  and  _126
REMARK   58  A    between atoms: _126  and  _127
REMARK   59  A    between atoms: _131  and  _133
REMARK   60  A    between atoms: _133  and  _134
REMARK   61  A    between atoms: _133  and  _136
REMARK   62  A    between atoms: _136  and  _137
REMARK   63  A    between atoms: _140  and  _142
REMARK   64  A    between atoms: _142  and  _143
REMARK   65  A    between atoms: _142  and  _145
REMARK   66  A    between atoms: _145  and  _146
REMARK   67  A    between atoms: _146  and  _147
REMARK   68  A    between atoms: _150  and  _152
REMARK   69  A    between atoms: _152  and  _153
REMARK   70  A    between atoms: _152  and  _155
REMARK   71  A    between atoms: _155  and  _156
REMARK   72  A    between atoms: _159  and  _161
REMARK   73  A    between atoms: _161  and  _162
REMARK   74  A    between atoms: _161  and  _164
REMARK   75  A    between atoms: _164  and  _165
REMARK   76  A    between atoms: _168  and  _170
REMARK   77  A    between atoms: _170  and  _171
REMARK   78  A    between atoms: _170  and  _173
REMARK   79  A    between atoms: _176  and  _178
REMARK   80  A    between atoms: _178  and  _179
REMARK   81  A    between atoms: _178  and  _181
REMARK   82  A    between atoms: _181  and  _182
REMARK   83  A    between atoms: _185  and  _187
REMARK   84  A    between atoms: _187  and  _188
REMARK   85  A    between atoms: _187  and  _190
REMARK   86  A    between atoms: _190  and  _191
REMARK   87  A    between atoms: _194  and  _196
REMARK   88  A    between atoms: _196  and  _197
REMARK   89  A    between atoms: _199  and  _201
REMARK   90  A    between atoms: _201  and  _202
REMARK   91  A    between atoms: _201  and  _204
REMARK   92  A    between atoms: _204  and  _205
REMARK   93  A    between atoms: _208  and  _210
REMARK   94  A    between atoms: _210  and  _211
REMARK   95  A    between atoms: _213  and  _215
REMARK   96  A    between atoms: _215  and  _216
REMARK   97  A    between atoms: _215  and  _218
REMARK   98  A    between atoms: _218  and  _219
REMARK   99  A    between atoms: _219  and  _220
REMARK  100  A    between atoms: _222  and  _224
REMARK  101  A    between atoms: _224  and  _225
REMARK  102  A    between atoms: _224  and  _227
REMARK  103  A    between atoms: _227  and  _228
REMARK  104  A    between atoms: _231  and  _233
REMARK  105  A    between atoms: _233  and  _234
REMARK  106  A    between atoms: _237  and  _239
REMARK  107  A    between atoms: _239  and  _240
REMARK  108  A    between atoms: _239  and  _242
REMARK  109  A    between atoms: _242  and  _243
REMARK  110  A    between atoms: _246  and  _248
REMARK  111  A    between atoms: _248  and  _249
REMARK  112  A    between atoms: _248  and  _251
REMARK  113  A    between atoms: _251  and  _252
REMARK  114  A    between atoms: _255  and  _257
REMARK  115  A    between atoms: _257  and  _258
REMARK  116  A    between atoms: _257  and  _260
REMARK  117  A    between atoms: _260  and  _261
REMARK  118  A    between atoms: _266  and  _268
REMARK  119  A    between atoms: _268  and  _269
REMARK  120  A    between atoms: _268  and  _271
REMARK  121  A    between atoms: _271  and  _272
REMARK  122  A    between atoms: _277  and  _279
REMARK  123  A    between atoms: _279  and  _280
REMARK  124  A    between atoms: _279  and  _282
REMARK  125  A    between atoms: _282  and  _283
REMARK  126  A    between atoms: _286  and  _288
REMARK  127  A    between atoms: _288  and  _289
REMARK  128  A    between atoms: _291  and  _293
REMARK  129  A    between atoms: _293  and  _294
REMARK  130  A    between atoms: _293  and  _296
REMARK  131  A    between atoms: _296  and  _297
REMARK  132  A    between atoms: _300  and  _302
REMARK  133  A    between atoms: _302  and  _303
REMARK  134  A    between atoms: _302  and  _305
REMARK  135  A    between atoms: _305  and  _306
REMARK  136  A    between atoms: _309  and  _311
REMARK  137  A    between atoms: _311  and  _312
REMARK  138  A    between atoms: _315  and  _317
REMARK  139  A    between atoms: _317  and  _318
REMARK  140  A    between atoms: _320  and  _322
REMARK  141  A    between atoms: _322  and  _323
REMARK  142  A    between atoms: _322  and  _325
REMARK  143  A    between atoms: _325  and  _326
REMARK  144  A    between atoms: _332  and  _334
REMARK  145  A    between atoms: _334  and  _335
REMARK  146  A    between atoms: _337  and  _339
REMARK  147  A    between atoms: _339  and  _340
REMARK  148  A    between atoms: _339  and  _342
REMARK  149  A    between atoms: _345  and  _347
REMARK  150  A    between atoms: _347  and  _348
REMARK  151  A    between atoms: _350  and  _352
REMARK  152  A    between atoms: _352  and  _353
REMARK  153  A    between atoms: _352  and  _355
REMARK  154  A    between atoms: _355  and  _356
REMARK  155  A    between atoms: _362  and  _364
REMARK  156  A    between atoms: _364  and  _365
REMARK  157  A    between atoms: _364  and  _367
REMARK  158  A    between atoms: _367  and  _368
REMARK  159  A    between atoms: _373  and  _374
REMARK  160  A    between atoms: _376  and  _378
REMARK  161  A    between atoms: _378  and  _379
REMARK  162  A    between atoms: _382  and  _384
REMARK  163  A    between atoms: _384  and  _385
REMARK  164  A    between atoms: _384  and  _387
REMARK  165  A    between atoms: _390  and  _392
REMARK  166  A    between atoms: _392  and  _393
REMARK  167  A    between atoms: _392  and  _395
REMARK  168  A    between atoms: _398  and  _400
REMARK  169  A    between atoms: _400  and  _401
REMARK  170  A    between atoms: _400  and  _403
REMARK  171  A    between atoms: _403  and  _404
REMARK  172  A    between atoms: _407  and  _409
REMARK  173  A    between atoms: _409  and  _410
REMARK  174  A    between atoms: _409  and  _412
REMARK  175  A    between atoms: _412  and  _413
REMARK  176  A    between atoms: _416  and  _418
REMARK  177  A    between atoms: _418  and  _419
REMARK  178  A    between atoms: _418  and  _421
REMARK  179  A    between atoms: _421  and  _422
REMARK  180  A    between atoms: _422  and  _423
REMARK  181  A    between atoms: _423  and  _424
REMARK  182  A    between atoms: _424  and  _425
REMARK  183  A    between atoms: _429  and  _431
REMARK  184  A    between atoms: _431  and  _432
REMARK  185  A    between atoms: _431  and  _434
REMARK  186  A    between atoms: _434  and  _435
REMARK  187  A    between atoms: _440  and  _442
REMARK  188  A    between atoms: _442  and  _443
REMARK  189  A    between atoms: _445  and  _447
REMARK  190  A    between atoms: _447  and  _448
REMARK  191  A    between atoms: _447  and  _450
REMARK  192  A    between atoms: _450  and  _451
REMARK  193  A    between atoms: _454  and  _456
REMARK  194  A    between atoms: _456  and  _457
REMARK  195  A    between atoms: _456  and  _459
REMARK  196  A    between atoms: _459  and  _460
REMARK  197  A    between atoms: _460  and  _461
REMARK  198  A    between atoms: _461  and  _462
REMARK  199  A    between atoms: _462  and  _463
REMARK  200  A    between atoms: _467  and  _469
REMARK  201  A    between atoms: _469  and  _470
REMARK  202  A    between atoms: _469  and  _472
REMARK  203  A    between atoms: _475  and  _477
REMARK  204  A    between atoms: _477  and  _478
REMARK  205  A    between atoms: _477  and  _480
REMARK  206  A    between atoms: _480  and  _481
REMARK  207  A    between atoms: _484  and  _486
REMARK  208  A    between atoms: _486  and  _487
REMARK  209  A    between atoms: _486  and  _489
REMARK  210  A    between atoms: _489  and  _490
REMARK  211  A    between atoms: _493  and  _495
REMARK  212  A    between atoms: _495  and  _496
REMARK  213  A    between atoms: _495  and  _498
REMARK  214  A    between atoms: _498  and  _499
REMARK  215  A    between atoms: _502  and  _504
REMARK  216  A    between atoms: _504  and  _505
REMARK  217  A    between atoms: _504  and  _507
REMARK  218  A    between atoms: _507  and  _508
REMARK  219  A    between atoms: _508  and  _509
REMARK  220  A    between atoms: _509  and  _510
REMARK  221  A    between atoms: _510  and  _511
REMARK  222  A    between atoms: _515  and  _517
REMARK  223  A    between atoms: _517  and  _518
REMARK  224  A    between atoms: _517  and  _520
REMARK  225  A    between atoms: _520  and  _521
REMARK  226  A    between atoms: _526  and  _527
REMARK                            x       y       z     vdW  Elec       q    Type
REMARK                         _______ _______ _______ _____ _____    ______ ____
ROOT
ATOM      1  O   HOH     1      35.886  10.013  23.345  0.00  0.00    +0.000 OA
ENDROOT
TORSDOF 0
REMARK  Name = ../refined-set-2016/2uwd/2uwd_pocket.pdb
REMARK  226 active torsions:
REMARK  status: ('A' for Active; 'I' for Inactive)
REMARK    1  A    between atoms: _1  and  _3
REMARK    2  A    between atoms: _3  and  _4
REMARK    3  A    between atoms: _3  and  _6
REMARK    4  A    between atoms: _6  and  _7
REMARK    5  A    between atoms: _13  and  _15
REMARK    6  A    between atoms: _15  and  _16
REMARK    7  A    between atoms: _15  and  _18
REMARK    8  A    between atoms: _18  and  _19
REMARK    9  A    between atoms: _22  and  _24
REMARK   10  A    between atoms: _24  and  _25
REMARK   11  A    between atoms: _24  and  _27
REMARK   12  A    between atoms: _27  and  _28
REMARK   13  A    between atoms: _28  and  _29
REMARK   14  A    between atoms: _32  and  _34
REMARK   15  A    between atoms: _34  and  _35
REMARK   16  A    between atoms: _34  and  _37
REMARK   17  A    between atoms: _37  and  _38
REMARK   18  A    between atoms: _41  and  _43
REMARK   19  A    between atoms: _43  and  _44
REMARK   20  A    between atoms: _43  and  _46
REMARK   21  A    between atoms: _46  and  _47
REMARK   22  A    between atoms: _50  and  _52
REMARK   23  A    between atoms: _52  and  _53
REMARK   24  A    between atoms: _52  and  _55
REMARK   25  A    between atoms: _55  and  _56
REMARK   26  A    between atoms: _58  and  _60
REMARK   27  A    between atoms: _60  and  _61
REMARK   28  A    between atoms: _60  and  _63
REMARK   29  A    between atoms: _63  and  _64
REMARK   30  A    between atoms: _69  and  _71
REMARK   31  A    between atoms: _71  and  _72
REMARK   32  A    between atoms: _71  and  _74
REMARK   33  A    between atoms: _74  and  _75
REMARK   34  A    between atoms: _77  and  _79
REMARK   35  A    between atoms: _79  and  _80
REMARK   36  A    between atoms: _79  and  _82
REMARK   37  A    between atoms: _82  and  _83
REMARK   38  A    between atoms: _85  and  _87
REMARK   39  A    between atoms: _87  and  _88
REMARK   40  A    between atoms: _87  and  _90
REMARK   41  A    between atoms: _90  and  _91
REMARK   42  A    between atoms: _94  and  _96
REMARK   43  A    between atoms: _96  and  _97
REMARK   44  A    between atoms: _100  and  _102
REMARK   45  A    between atoms: _102  and  _103
REMARK   46  A    between atoms: _102  and  _105
REMARK   47  A    between atoms: _105  and  _106
REMARK   48  A    between atoms: _109  and  _111
REMARK   49  A    between atoms: _111  and  _112
REMARK   50  A    between atoms: _111  and  _114
REMARK   51  A    between atoms: _114  and  _115
REMARK   52  A    between atoms: _118  and  _120
REMARK   53  A    between atoms: _120  and  _121
REMARK   54  A    between atoms: _120  and  _123
REMARK   55  A    between atoms: _123  and  _124
REMARK   56  A    between atoms: _124  and  _125
REMARK   57  A    between atoms: _125  and  _126
REMARK   58  A    between atoms: _126  and  _127
REMARK   59  A    between atoms: _131  and  _133
REMARK   60  A    between atoms: _133  and  _134
REMARK   61  A    between atoms: _133  and  _136
REMARK   62  A    between atoms: _136  and  _137
REMARK   63  A    between atoms: _140  and  _142
REMARK   64  A    between atoms: _142  and  _143
REMARK   65  A    between atoms: _142  and  _145
REMARK   66  A    between atoms: _145  and  _146
REMARK   67  A    between atoms: _146  and  _147
REMARK   68  A    between atoms: _150  and  _152
REMARK   69  A    between atoms: _152  and  _153
REMARK   70  A    between atoms: _152  and  _155
REMARK   71  A    between atoms: _155  and  _156
REMARK   72  A    between atoms: _159  and  _161
REMARK   73  A    between atoms: _161  and  _162
REMARK   74  A    between atoms: _161  and  _164
REMARK   75  A    between atoms: _164  and  _165
REMARK   76  A    between atoms: _168  and  _170
REMARK   77  A    between atoms: _170  and  _171
REMARK   78  A    between atoms: _170  and  _173
REMARK   79  A    between atoms: _176  and  _178
REMARK   80  A    between atoms: _178  and  _179
REMARK   81  A    between atoms: _178  and  _181
REMARK   82  A    between atoms: _181  and  _182
REMARK   83  A    between atoms: _185  and  _187
REMARK   84  A    between atoms: _187  and  _188
REMARK   85  A    between atoms: _187  and  _190
REMARK   86  A    between atoms: _190  and  _191
REMARK   87  A    between atoms: _194  and  _196
REMARK   88  A    between atoms: _196  and  _197
REMARK   89  A    between atoms: _199  and  _201
REMARK   90  A    between atoms: _201  and  _202
REMARK   91  A    between atoms: _201  and  _204
REMARK   92  A    between atoms: _204  and  _205
REMARK   93  A    between atoms: _208  and  _210
REMARK   94  A    between atoms: _210  and  _211
REMARK   95  A    between atoms: _213  and  _215
REMARK   96  A    between atoms: _215  and  _216
REMARK   97  A    between atoms: _215  and  _218
REMARK   98  A    between atoms: _218  and  _219
REMARK   99  A    between atoms: _219  and  _220
REMARK  100  A    between atoms: _222  and  _224
REMARK  101  A    between atoms: _224  and  _225
REMARK  102  A    between atoms: _224  and  _227
REMARK  103  A    between atoms: _227  and  _228
REMARK  104  A    between atoms: _231  and  _233
REMARK  105  A    between atoms: _233  and  _234
REMARK  106  A    between atoms: _237  and  _239
REMARK  107  A    between atoms: _239  and  _240
REMARK  108  A    between atoms: _239  and  _242
REMARK  109  A    between atoms: _242  and  _243
REMARK  110  A    between atoms: _246  and  _248
REMARK  111  A    between atoms: _248  and  _249
REMARK  112  A    between atoms: _248  and  _251
REMARK  113  A    between atoms: _251  and  _252
REMARK  114  A    between atoms: _255  and  _257
REMARK  115  A    between atoms: _257  and  _258
REMARK  116  A    between atoms: _257  and  _260
REMARK  117  A    between atoms: _260  and  _261
REMARK  118  A    between atoms: _266  and  _268
REMARK  119  A    between atoms: _268  and  _269
REMARK  120  A    between atoms: _268  and  _271
REMARK  121  A    between atoms: _271  and  _272
REMARK  122  A    between atoms: _277  and  _279
REMARK  123  A    between atoms: _279  and  _280
REMARK  124  A    between atoms: _279  and  _282
REMARK  125  A    between atoms: _282  and  _283
REMARK  126  A    between atoms: _286  and  _288
REMARK  127  A    between atoms: _288  and  _289
REMARK  128  A    between atoms: _291  and  _293
REMARK  129  A    between atoms: _293  and  _294
REMARK  130  A    between atoms: _293  and  _296
REMARK  131  A    between atoms: _296  and  _297
REMARK  132  A    between atoms: _300  and  _302
REMARK  133  A    between atoms: _302  and  _303
REMARK  134  A    between atoms: _302  and  _305
REMARK  135  A    between atoms: _305  and  _306
REMARK  136  A    between atoms: _309  and  _311
REMARK  137  A    between atoms: _311  and  _312
REMARK  138  A    between atoms: _315  and  _317
REMARK  139  A    between atoms: _317  and  _318
REMARK  140  A    between atoms: _320  and  _322
REMARK  141  A    between atoms: _322  and  _323
REMARK  142  A    between atoms: _322  and  _325
REMARK  143  A    between atoms: _325  and  _326
REMARK  144  A    between atoms: _332  and  _334
REMARK  145  A    between atoms: _334  and  _335
REMARK  146  A    between atoms: _337  and  _339
REMARK  147  A    between atoms: _339  and  _340
REMARK  148  A    between atoms: _339  and  _342
REMARK  149  A    between atoms: _345  and  _347
REMARK  150  A    between atoms: _347  and  _348
REMARK  151  A    between atoms: _350  and  _352
REMARK  152  A    between atoms: _352  and  _353
REMARK  153  A    between atoms: _352  and  _355
REMARK  154  A    between atoms: _355  and  _356
REMARK  155  A    between atoms: _362  and  _364
REMARK  156  A    between atoms: _364  and  _365
REMARK  157  A    between atoms: _364  and  _367
REMARK  158  A    between atoms: _367  and  _368
REMARK  159  A    between atoms: _373  and  _374
REMARK  160  A    between atoms: _376  and  _378
REMARK  161  A    between atoms: _378  and  _379
REMARK  162  A    between atoms: _382  and  _384
REMARK  163  A    between atoms: _384  and  _385
REMARK  164  A    between atoms: _384  and  _387
REMARK  165  A    between atoms: _390  and  _392
REMARK  166  A    between atoms: _392  and  _393
REMARK  167  A    between atoms: _392  and  _395
REMARK  168  A    between atoms: _398  and  _400
REMARK  169  A    between atoms: _400  and  _401
REMARK  170  A    between atoms: _400  and  _403
REMARK  171  A    between atoms: _403  and  _404
REMARK  172  A    between atoms: _407  and  _409
REMARK  173  A    between atoms: _409  and  _410
REMARK  174  A    between atoms: _409  and  _412
REMARK  175  A    between atoms: _412  and  _413
REMARK  176  A    between atoms: _416  and  _418
REMARK  177  A    between atoms: _418  and  _419
REMARK  178  A    between atoms: _418  and  _421
REMARK  179  A    between atoms: _421  and  _422
REMARK  180  A    between atoms: _422  and  _423
REMARK  181  A    between atoms: _423  and  _424
REMARK  182  A    between atoms: _424  and  _425
REMARK  183  A    between atoms: _429  and  _431
REMARK  184  A    between atoms: _431  and  _432
REMARK  185  A    between atoms: _431  and  _434
REMARK  186  A    between atoms: _434  and  _435
REMARK  187  A    between atoms: _440  and  _442
REMARK  188  A    between atoms: _442  and  _443
REMARK  189  A    between atoms: _445  and  _447
REMARK  190  A    between atoms: _447  and  _448
REMARK  191  A    between atoms: _447  and  _450
REMARK  192  A    between atoms: _450  and  _451
REMARK  193  A    between atoms: _454  and  _456
REMARK  194  A    between atoms: _456  and  _457
REMARK  195  A    between atoms: _456  and  _459
REMARK  196  A    between atoms: _459  and  _460
REMARK  197  A    between atoms: _460  and  _461
REMARK  198  A    between atoms: _461  and  _462
REMARK  199  A    between atoms: _462  and  _463
REMARK  200  A    between atoms: _467  and  _469
REMARK  201  A    between atoms: _469  and  _470
REMARK  202  A    between atoms: _469  and  _472
REMARK  203  A    between atoms: _475  and  _477
REMARK  204  A    between atoms: _477  and  _478
REMARK  205  A    between atoms: _477  and  _480
REMARK  206  A    between atoms: _480  and  _481
REMARK  207  A    between atoms: _484  and  _486
REMARK  208  A    between atoms: _486  and  _487
REMARK  209  A    between atoms: _486  and  _489
REMARK  210  A    between atoms: _489  and  _490
REMARK  211  A    between atoms: _493  and  _495
REMARK  212  A    between atoms: _495  and  _496
REMARK  213  A    between atoms: _495  and  _498
REMARK  214  A    between atoms: _498  and  _499
REMARK  215  A    between atoms: _502  and  _504
REMARK  216  A    between atoms: _504  and  _505
REMARK  217  A    between atoms: _504  and  _507
REMARK  218  A    between atoms: _507  and  _508
REMARK  219  A    between atoms: _508  and  _509
REMARK  220  A    between atoms: _509  and  _510
REMARK  221  A    between atoms: _510  and  _511
REMARK  222  A    between atoms: _515  and  _517
REMARK  223  A    between atoms: _517  and  _518
REMARK  224  A    between atoms: _517  and  _520
REMARK  225  A    between atoms: _520  and  _521
REMARK  226  A    between atoms: _526  and  _527
REMARK                            x       y       z     vdW  Elec       q    Type
REMARK                         _______ _______ _______ _____ _____    ______ ____
ROOT
ATOM      1  O   HOH     1      34.875   5.081  27.260  0.00  0.00    +0.000 OA
ENDROOT
TORSDOF 0
REMARK  Name = ../refined-set-2016/2uwd/2uwd_pocket.pdb
REMARK  226 active torsions:
REMARK  status: ('A' for Active; 'I' for Inactive)
REMARK    1  A    between atoms: _1  and  _3
REMARK    2  A    between atoms: _3  and  _4
REMARK    3  A    between atoms: _3  and  _6
REMARK    4  A    between atoms: _6  and  _7
REMARK    5  A    between atoms: _13  and  _15
REMARK    6  A    between atoms: _15  and  _16
REMARK    7  A    between atoms: _15  and  _18
REMARK    8  A    between atoms: _18  and  _19
REMARK    9  A    between atoms: _22  and  _24
REMARK   10  A    between atoms: _24  and  _25
REMARK   11  A    between atoms: _24  and  _27
REMARK   12  A    between atoms: _27  and  _28
REMARK   13  A    between atoms: _28  and  _29
REMARK   14  A    between atoms: _32  and  _34
REMARK   15  A    between atoms: _34  and  _35
REMARK   16  A    between atoms: _34  and  _37
REMARK   17  A    between atoms: _37  and  _38
REMARK   18  A    between atoms: _41  and  _43
REMARK   19  A    between atoms: _43  and  _44
REMARK   20  A    between atoms: _43  and  _46
REMARK   21  A    between atoms: _46  and  _47
REMARK   22  A    between atoms: _50  and  _52
REMARK   23  A    between atoms: _52  and  _53
REMARK   24  A    between atoms: _52  and  _55
REMARK   25  A    between atoms: _55  and  _56
REMARK   26  A    between atoms: _58  and  _60
REMARK   27  A    between atoms: _60  and  _61
REMARK   28  A    between atoms: _60  and  _63
REMARK   29  A    between atoms: _63  and  _64
REMARK   30  A    between atoms: _69  and  _71
REMARK   31  A    between atoms: _71  and  _72
REMARK   32  A    between atoms: _71  and  _74
REMARK   33  A    between atoms: _74  and  _75
REMARK   34  A    between atoms: _77  and  _79
REMARK   35  A    between atoms: _79  and  _80
REMARK   36  A    between atoms: _79  and  _82
REMARK   37  A    between atoms: _82  and  _83
REMARK   38  A    between atoms: _85  and  _87
REMARK   39  A    between atoms: _87  and  _88
REMARK   40  A    between atoms: _87  and  _90
REMARK   41  A    between atoms: _90  and  _91
REMARK   42  A    between atoms: _94  and  _96
REMARK   43  A    between atoms: _96  and  _97
REMARK   44  A    between atoms: _100  and  _102
REMARK   45  A    between atoms: _102  and  _103
REMARK   46  A    between atoms: _102  and  _105
REMARK   47  A    between atoms: _105  and  _106
REMARK   48  A    between atoms: _109  and  _111
REMARK   49  A    between atoms: _111  and  _112
REMARK   50  A    between atoms: _111  and  _114
REMARK   51  A    between atoms: _114  and  _115
REMARK   52  A    between atoms: _118  and  _120
REMARK   53  A    between atoms: _120  and  _121
REMARK   54  A    between atoms: _120  and  _123
REMARK   55  A    between atoms: _123  and  _124
REMARK   56  A    between atoms: _124  and  _125
REMARK   57  A    between atoms: _125  and  _126
REMARK   58  A    between atoms: _126  and  _127
REMARK   59  A    between atoms: _131  and  _133
REMARK   60  A    between atoms: _133  and  _134
REMARK   61  A    between atoms: _133  and  _136
REMARK   62  A    between atoms: _136  and  _137
REMARK   63  A    between atoms: _140  and  _142
REMARK   64  A    between atoms: _142  and  _143
REMARK   65  A    between atoms: _142  and  _145
REMARK   66  A    between atoms: _145  and  _146
REMARK   67  A    between atoms: _146  and  _147
REMARK   68  A    between atoms: _150  and  _152
REMARK   69  A    between atoms: _152  and  _153
REMARK   70  A    between atoms: _152  and  _155
REMARK   71  A    between atoms: _155  and  _156
REMARK   72  A    between atoms: _159  and  _161
REMARK   73  A    between atoms: _161  and  _162
REMARK   74  A    between atoms: _161  and  _164
REMARK   75  A    between atoms: _164  and  _165
REMARK   76  A    between atoms: _168  and  _170
REMARK   77  A    between atoms: _170  and  _171
REMARK   78  A    between atoms: _170  and  _173
REMARK   79  A    between atoms: _176  and  _178
REMARK   80  A    between atoms: _178  and  _179
REMARK   81  A    between atoms: _178  and  _181
REMARK   82  A    between atoms: _181  and  _182
REMARK   83  A    between atoms: _185  and  _187
REMARK   84  A    between atoms: _187  and  _188
REMARK   85  A    between atoms: _187  and  _190
REMARK   86  A    between atoms: _190  and  _191
REMARK   87  A    between atoms: _194  and  _196
REMARK   88  A    between atoms: _196  and  _197
REMARK   89  A    between atoms: _199  and  _201
REMARK   90  A    between atoms: _201  and  _202
REMARK   91  A    between atoms: _201  and  _204
REMARK   92  A    between atoms: _204  and  _205
REMARK   93  A    between atoms: _208  and  _210
REMARK   94  A    between atoms: _210  and  _211
REMARK   95  A    between atoms: _213  and  _215
REMARK   96  A    between atoms: _215  and  _216
REMARK   97  A    between atoms: _215  and  _218
REMARK   98  A    between atoms: _218  and  _219
REMARK   99  A    between atoms: _219  and  _220
REMARK  100  A    between atoms: _222  and  _224
REMARK  101  A    between atoms: _224  and  _225
REMARK  102  A    between atoms: _224  and  _227
REMARK  103  A    between atoms: _227  and  _228
REMARK  104  A    between atoms: _231  and  _233
REMARK  105  A    between atoms: _233  and  _234
REMARK  106  A    between atoms: _237  and  _239
REMARK  107  A    between atoms: _239  and  _240
REMARK  108  A    between atoms: _239  and  _242
REMARK  109  A    between atoms: _242  and  _243
REMARK  110  A    between atoms: _246  and  _248
REMARK  111  A    between atoms: _248  and  _249
REMARK  112  A    between atoms: _248  and  _251
REMARK  113  A    between atoms: _251  and  _252
REMARK  114  A    between atoms: _255  and  _257
REMARK  115  A    between atoms: _257  and  _258
REMARK  116  A    between atoms: _257  and  _260
REMARK  117  A    between atoms: _260  and  _261
REMARK  118  A    between atoms: _266  and  _268
REMARK  119  A    between atoms: _268  and  _269
REMARK  120  A    between atoms: _268  and  _271
REMARK  121  A    between atoms: _271  and  _272
REMARK  122  A    between atoms: _277  and  _279
REMARK  123  A    between atoms: _279  and  _280
REMARK  124  A    between atoms: _279  and  _282
REMARK  125  A    between atoms: _282  and  _283
REMARK  126  A    between atoms: _286  and  _288
REMARK  127  A    between atoms: _288  and  _289
REMARK  128  A    between atoms: _291  and  _293
REMARK  129  A    between atoms: _293  and  _294
REMARK  130  A    between atoms: _293  and  _296
REMARK  131  A    between atoms: _296  and  _297
REMARK  132  A    between atoms: _300  and  _302
REMARK  133  A    between atoms: _302  and  _303
REMARK  134  A    between atoms: _302  and  _305
REMARK  135  A    between atoms: _305  and  _306
REMARK  136  A    between atoms: _309  and  _311
REMARK  137  A    between atoms: _311  and  _312
REMARK  138  A    between atoms: _315  and  _317
REMARK  139  A    between atoms: _317  and  _318
REMARK  140  A    between atoms: _320  and  _322
REMARK  141  A    between atoms: _322  and  _323
REMARK  142  A    between atoms: _322  and  _325
REMARK  143  A    between atoms: _325  and  _326
REMARK  144  A    between atoms: _332  and  _334
REMARK  145  A    between atoms: _334  and  _335
REMARK  146  A    between atoms: _337  and  _339
REMARK  147  A    between atoms: _339  and  _340
REMARK  148  A    between atoms: _339  and  _342
REMARK  149  A    between atoms: _345  and  _347
REMARK  150  A    between atoms: _347  and  _348
REMARK  151  A    between atoms: _350  and  _352
REMARK  152  A    between atoms: _352  and  _353
REMARK  153  A    between atoms: _352  and  _355
REMARK  154  A    between atoms: _355  and  _356
REMARK  155  A    between atoms: _362  and  _364
REMARK  156  A    between atoms: _364  and  _365
REMARK  157  A    between atoms: _364  and  _367
REMARK  158  A    between atoms: _367  and  _368
REMARK  159  A    between atoms: _373  and  _374
REMARK  160  A    between atoms: _376  and  _378
REMARK  161  A    between atoms: _378  and  _379
REMARK  162  A    between atoms: _382  and  _384
REMARK  163  A    between atoms: _384  and  _385
REMARK  164  A    between atoms: _384  and  _387
REMARK  165  A    between atoms: _390  and  _392
REMARK  166  A    between atoms: _392  and  _393
REMARK  167  A    between atoms: _392  and  _395
REMARK  168  A    between atoms: _398  and  _400
REMARK  169  A    between atoms: _400  and  _401
REMARK  170  A    between atoms: _400  and  _403
REMARK  171  A    between atoms: _403  and  _404
REMARK  172  A    between atoms: _407  and  _409
REMARK  173  A    between atoms: _409  and  _410
REMARK  174  A    between atoms: _409  and  _412
REMARK  175  A    between atoms: _412  and  _413
REMARK  176  A    between atoms: _416  and  _418
REMARK  177  A    between atoms: _418  and  _419
REMARK  178  A    between atoms: _418  and  _421
REMARK  179  A    between atoms: _421  and  _422
REMARK  180  A    between atoms: _422  and  _423
REMARK  181  A    between atoms: _423  and  _424
REMARK  182  A    between atoms: _424  and  _425
REMARK  183  A    between atoms: _429  and  _431
REMARK  184  A    between atoms: _431  and  _432
REMARK  185  A    between atoms: _431  and  _434
REMARK  186  A    between atoms: _434  and  _435
REMARK  187  A    between atoms: _440  and  _442
REMARK  188  A    between atoms: _442  and  _443
REMARK  189  A    between atoms: _445  and  _447
REMARK  190  A    between atoms: _447  and  _448
REMARK  191  A    between atoms: _447  and  _450
REMARK  192  A    between atoms: _450  and  _451
REMARK  193  A    between atoms: _454  and  _456
REMARK  194  A    between atoms: _456  and  _457
REMARK  195  A    between atoms: _456  and  _459
REMARK  196  A    between atoms: _459  and  _460
REMARK  197  A    between atoms: _460  and  _461
REMARK  198  A    between atoms: _461  and  _462
REMARK  199  A    between atoms: _462  and  _463
REMARK  200  A    between atoms: _467  and  _469
REMARK  201  A    between atoms: _469  and  _470
REMARK  202  A    between atoms: _469  and  _472
REMARK  203  A    between atoms: _475  and  _477
REMARK  204  A    between atoms: _477  and  _478
REMARK  205  A    between atoms: _477  and  _480
REMARK  206  A    between atoms: _480  and  _481
REMARK  207  A    between atoms: _484  and  _486
REMARK  208  A    between atoms: _486  and  _487
REMARK  209  A    between atoms: _486  and  _489
REMARK  210  A    between atoms: _489  and  _490
REMARK  211  A    between atoms: _493  and  _495
REMARK  212  A    between atoms: _495  and  _496
REMARK  213  A    between atoms: _495  and  _498
REMARK  214  A    between atoms: _498  and  _499
REMARK  215  A    between atoms: _502  and  _504
REMARK  216  A    between atoms: _504  and  _505
REMARK  217  A    between atoms: _504  and  _507
REMARK  218  A    between atoms: _507  and  _508
REMARK  219  A    between atoms: _508  and  _509
REMARK  220  A    between atoms: _509  and  _510
REMARK  221  A    between atoms: _510  and  _511
REMARK  222  A    between atoms: _515  and  _517
REMARK  223  A    between atoms: _517  and  _518
REMARK  224  A    between atoms: _517  and  _520
REMARK  225  A    between atoms: _520  and  _521
REMARK  226  A    between atoms: _526  and  _527
REMARK                            x       y       z     vdW  Elec       q    Type
REMARK                         _______ _______ _______ _____ _____    ______ ____
ROOT
ATOM      1  O   HOH     1      38.461   3.363  26.657  0.00  0.00    +0.000 OA
ENDROOT
TORSDOF 0
REMARK  Name = ../refined-set-2016/2uwd/2uwd_pocket.pdb
REMARK  226 active torsions:
REMARK  status: ('A' for Active; 'I' for Inactive)
REMARK    1  A    between atoms: _1  and  _3
REMARK    2  A    between atoms: _3  and  _4
REMARK    3  A    between atoms: _3  and  _6
REMARK    4  A    between atoms: _6  and  _7
REMARK    5  A    between atoms: _13  and  _15
REMARK    6  A    between atoms: _15  and  _16
REMARK    7  A    between atoms: _15  and  _18
REMARK    8  A    between atoms: _18  and  _19
REMARK    9  A    between atoms: _22  and  _24
REMARK   10  A    between atoms: _24  and  _25
REMARK   11  A    between atoms: _24  and  _27
REMARK   12  A    between atoms: _27  and  _28
REMARK   13  A    between atoms: _28  and  _29
REMARK   14  A    between atoms: _32  and  _34
REMARK   15  A    between atoms: _34  and  _35
REMARK   16  A    between atoms: _34  and  _37
REMARK   17  A    between atoms: _37  and  _38
REMARK   18  A    between atoms: _41  and  _43
REMARK   19  A    between atoms: _43  and  _44
REMARK   20  A    between atoms: _43  and  _46
REMARK   21  A    between atoms: _46  and  _47
REMARK   22  A    between atoms: _50  and  _52
REMARK   23  A    between atoms: _52  and  _53
REMARK   24  A    between atoms: _52  and  _55
REMARK   25  A    between atoms: _55  and  _56
REMARK   26  A    between atoms: _58  and  _60
REMARK   27  A    between atoms: _60  and  _61
REMARK   28  A    between atoms: _60  and  _63
REMARK   29  A    between atoms: _63  and  _64
REMARK   30  A    between atoms: _69  and  _71
REMARK   31  A    between atoms: _71  and  _72
REMARK   32  A    between atoms: _71  and  _74
REMARK   33  A    between atoms: _74  and  _75
REMARK   34  A    between atoms: _77  and  _79
REMARK   35  A    between atoms: _79  and  _80
REMARK   36  A    between atoms: _79  and  _82
REMARK   37  A    between atoms: _82  and  _83
REMARK   38  A    between atoms: _85  and  _87
REMARK   39  A    between atoms: _87  and  _88
REMARK   40  A    between atoms: _87  and  _90
REMARK   41  A    between atoms: _90  and  _91
REMARK   42  A    between atoms: _94  and  _96
REMARK   43  A    between atoms: _96  and  _97
REMARK   44  A    between atoms: _100  and  _102
REMARK   45  A    between atoms: _102  and  _103
REMARK   46  A    between atoms: _102  and  _105
REMARK   47  A    between atoms: _105  and  _106
REMARK   48  A    between atoms: _109  and  _111
REMARK   49  A    between atoms: _111  and  _112
REMARK   50  A    between atoms: _111  and  _114
REMARK   51  A    between atoms: _114  and  _115
REMARK   52  A    between atoms: _118  and  _120
REMARK   53  A    between atoms: _120  and  _121
REMARK   54  A    between atoms: _120  and  _123
REMARK   55  A    between atoms: _123  and  _124
REMARK   56  A    between atoms: _124  and  _125
REMARK   57  A    between atoms: _125  and  _126
REMARK   58  A    between atoms: _126  and  _127
REMARK   59  A    between atoms: _131  and  _133
REMARK   60  A    between atoms: _133  and  _134
REMARK   61  A    between atoms: _133  and  _136
REMARK   62  A    between atoms: _136  and  _137
REMARK   63  A    between atoms: _140  and  _142
REMARK   64  A    between atoms: _142  and  _143
REMARK   65  A    between atoms: _142  and  _145
REMARK   66  A    between atoms: _145  and  _146
REMARK   67  A    between atoms: _146  and  _147
REMARK   68  A    between atoms: _150  and  _152
REMARK   69  A    between atoms: _152  and  _153
REMARK   70  A    between atoms: _152  and  _155
REMARK   71  A    between atoms: _155  and  _156
REMARK   72  A    between atoms: _159  and  _161
REMARK   73  A    between atoms: _161  and  _162
REMARK   74  A    between atoms: _161  and  _164
REMARK   75  A    between atoms: _164  and  _165
REMARK   76  A    between atoms: _168  and  _170
REMARK   77  A    between atoms: _170  and  _171
REMARK   78  A    between atoms: _170  and  _173
REMARK   79  A    between atoms: _176  and  _178
REMARK   80  A    between atoms: _178  and  _179
REMARK   81  A    between atoms: _178  and  _181
REMARK   82  A    between atoms: _181  and  _182
REMARK   83  A    between atoms: _185  and  _187
REMARK   84  A    between atoms: _187  and  _188
REMARK   85  A    between atoms: _187  and  _190
REMARK   86  A    between atoms: _190  and  _191
REMARK   87  A    between atoms: _194  and  _196
REMARK   88  A    between atoms: _196  and  _197
REMARK   89  A    between atoms: _199  and  _201
REMARK   90  A    between atoms: _201  and  _202
REMARK   91  A    between atoms: _201  and  _204
REMARK   92  A    between atoms: _204  and  _205
REMARK   93  A    between atoms: _208  and  _210
REMARK   94  A    between atoms: _210  and  _211
REMARK   95  A    between atoms: _213  and  _215
REMARK   96  A    between atoms: _215  and  _216
REMARK   97  A    between atoms: _215  and  _218
REMARK   98  A    between atoms: _218  and  _219
REMARK   99  A    between atoms: _219  and  _220
REMARK  100  A    between atoms: _222  and  _224
REMARK  101  A    between atoms: _224  and  _225
REMARK  102  A    between atoms: _224  and  _227
REMARK  103  A    between atoms: _227  and  _228
REMARK  104  A    between atoms: _231  and  _233
REMARK  105  A    between atoms: _233  and  _234
REMARK  106  A    between atoms: _237  and  _239
REMARK  107  A    between atoms: _239  and  _240
REMARK  108  A    between atoms: _239  and  _242
REMARK  109  A    between atoms: _242  and  _243
REMARK  110  A    between atoms: _246  and  _248
REMARK  111  A    between atoms: _248  and  _249
REMARK  112  A    between atoms: _248  and  _251
REMARK  113  A    between atoms: _251  and  _252
REMARK  114  A    between atoms: _255  and  _257
REMARK  115  A    between atoms: _257  and  _258
REMARK  116  A    between atoms: _257  and  _260
REMARK  117  A    between atoms: _260  and  _261
REMARK  118  A    between atoms: _266  and  _268
REMARK  119  A    between atoms: _268  and  _269
REMARK  120  A    between atoms: _268  and  _271
REMARK  121  A    between atoms: _271  and  _272
REMARK  122  A    between atoms: _277  and  _279
REMARK  123  A    between atoms: _279  and  _280
REMARK  124  A    between atoms: _279  and  _282
REMARK  125  A    between atoms: _282  and  _283
REMARK  126  A    between atoms: _286  and  _288
REMARK  127  A    between atoms: _288  and  _289
REMARK  128  A    between atoms: _291  and  _293
REMARK  129  A    between atoms: _293  and  _294
REMARK  130  A    between atoms: _293  and  _296
REMARK  131  A    between atoms: _296  and  _297
REMARK  132  A    between atoms: _300  and  _302
REMARK  133  A    between atoms: _302  and  _303
REMARK  134  A    between atoms: _302  and  _305
REMARK  135  A    between atoms: _305  and  _306
REMARK  136  A    between atoms: _309  and  _311
REMARK  137  A    between atoms: _311  and  _312
REMARK  138  A    between atoms: _315  and  _317
REMARK  139  A    between atoms: _317  and  _318
REMARK  140  A    between atoms: _320  and  _322
REMARK  141  A    between atoms: _322  and  _323
REMARK  142  A    between atoms: _322  and  _325
REMARK  143  A    between atoms: _325  and  _326
REMARK  144  A    between atoms: _332  and  _334
REMARK  145  A    between atoms: _334  and  _335
REMARK  146  A    between atoms: _337  and  _339
REMARK  147  A    between atoms: _339  and  _340
REMARK  148  A    between atoms: _339  and  _342
REMARK  149  A    between atoms: _345  and  _347
REMARK  150  A    between atoms: _347  and  _348
REMARK  151  A    between atoms: _350  and  _352
REMARK  152  A    between atoms: _352  and  _353
REMARK  153  A    between atoms: _352  and  _355
REMARK  154  A    between atoms: _355  and  _356
REMARK  155  A    between atoms: _362  and  _364
REMARK  156  A    between atoms: _364  and  _365
REMARK  157  A    between atoms: _364  and  _367
REMARK  158  A    between atoms: _367  and  _368
REMARK  159  A    between atoms: _373  and  _374
REMARK  160  A    between atoms: _376  and  _378
REMARK  161  A    between atoms: _378  and  _379
REMARK  162  A    between atoms: _382  and  _384
REMARK  163  A    between atoms: _384  and  _385
REMARK  164  A    between atoms: _384  and  _387
REMARK  165  A    between atoms: _390  and  _392
REMARK  166  A    between atoms: _392  and  _393
REMARK  167  A    between atoms: _392  and  _395
REMARK  168  A    between atoms: _398  and  _400
REMARK  169  A    between atoms: _400  and  _401
REMARK  170  A    between atoms: _400  and  _403
REMARK  171  A    between atoms: _403  and  _404
REMARK  172  A    between atoms: _407  and  _409
REMARK  173  A    between atoms: _409  and  _410
REMARK  174  A    between atoms: _409  and  _412
REMARK  175  A    between atoms: _412  and  _413
REMARK  176  A    between atoms: _416  and  _418
REMARK  177  A    between atoms: _418  and  _419
REMARK  178  A    between atoms: _418  and  _421
REMARK  179  A    between atoms: _421  and  _422
REMARK  180  A    between atoms: _422  and  _423
REMARK  181  A    between atoms: _423  and  _424
REMARK  182  A    between atoms: _424  and  _425
REMARK  183  A    between atoms: _429  and  _431
REMARK  184  A    between atoms: _431  and  _432
REMARK  185  A    between atoms: _431  and  _434
REMARK  186  A    between atoms: _434  and  _435
REMARK  187  A    between atoms: _440  and  _442
REMARK  188  A    between atoms: _442  and  _443
REMARK  189  A    between atoms: _445  and  _447
REMARK  190  A    between atoms: _447  and  _448
REMARK  191  A    between atoms: _447  and  _450
REMARK  192  A    between atoms: _450  and  _451
REMARK  193  A    between atoms: _454  and  _456
REMARK  194  A    between atoms: _456  and  _457
REMARK  195  A    between atoms: _456  and  _459
REMARK  196  A    between atoms: _459  and  _460
REMARK  197  A    between atoms: _460  and  _461
REMARK  198  A    between atoms: _461  and  _462
REMARK  199  A    between atoms: _462  and  _463
REMARK  200  A    between atoms: _467  and  _469
REMARK  201  A    between atoms: _469  and  _470
REMARK  202  A    between atoms: _469  and  _472
REMARK  203  A    between atoms: _475  and  _477
REMARK  204  A    between atoms: _477  and  _478
REMARK  205  A    between atoms: _477  and  _480
REMARK  206  A    between atoms: _480  and  _481
REMARK  207  A    between atoms: _484  and  _486
REMARK  208  A    between atoms: _486  and  _487
REMARK  209  A    between atoms: _486  and  _489
REMARK  210  A    between atoms: _489  and  _490
REMARK  211  A    between atoms: _493  and  _495
REMARK  212  A    between atoms: _495  and  _496
REMARK  213  A    between atoms: _495  and  _498
REMARK  214  A    between atoms: _498  and  _499
REMARK  215  A    between atoms: _502  and  _504
REMARK  216  A    between atoms: _504  and  _505
REMARK  217  A    between atoms: _504  and  _507
REMARK  218  A    between atoms: _507  and  _508
REMARK  219  A    between atoms: _508  and  _509
REMARK  220  A    between atoms: _509  and  _510
REMARK  221  A    between atoms: _510  and  _511
REMARK  222  A    between atoms: _515  and  _517
REMARK  223  A    between atoms: _517  and  _518
REMARK  224  A    between atoms: _517  and  _520
REMARK  225  A    between atoms: _520  and  _521
REMARK  226  A    between atoms: _526  and  _527
REMARK                            x       y       z     vdW  Elec       q    Type
REMARK                         _______ _______ _______ _____ _____    ______ ____
ROOT
ATOM      1  O   HOH     1      35.881   4.072  18.449  0.00  0.00    +0.000 OA
ENDROOT
TORSDOF 0
REMARK  Name = ../refined-set-2016/2uwd/2uwd_pocket.pdb
REMARK  226 active torsions:
REMARK  status: ('A' for Active; 'I' for Inactive)
REMARK    1  A    between atoms: _1  and  _3
REMARK    2  A    between atoms: _3  and  _4
REMARK    3  A    between atoms: _3  and  _6
REMARK    4  A    between atoms: _6  and  _7
REMARK    5  A    between atoms: _13  and  _15
REMARK    6  A    between atoms: _15  and  _16
REMARK    7  A    between atoms: _15  and  _18
REMARK    8  A    between atoms: _18  and  _19
REMARK    9  A    between atoms: _22  and  _24
REMARK   10  A    between atoms: _24  and  _25
REMARK   11  A    between atoms: _24  and  _27
REMARK   12  A    between atoms: _27  and  _28
REMARK   13  A    between atoms: _28  and  _29
REMARK   14  A    between atoms: _32  and  _34
REMARK   15  A    between atoms: _34  and  _35
REMARK   16  A    between atoms: _34  and  _37
REMARK   17  A    between atoms: _37  and  _38
REMARK   18  A    between atoms: _41  and  _43
REMARK   19  A    between atoms: _43  and  _44
REMARK   20  A    between atoms: _43  and  _46
REMARK   21  A    between atoms: _46  and  _47
REMARK   22  A    between atoms: _50  and  _52
REMARK   23  A    between atoms: _52  and  _53
REMARK   24  A    between atoms: _52  and  _55
REMARK   25  A    between atoms: _55  and  _56
REMARK   26  A    between atoms: _58  and  _60
REMARK   27  A    between atoms: _60  and  _61
REMARK   28  A    between atoms: _60  and  _63
REMARK   29  A    between atoms: _63  and  _64
REMARK   30  A    between atoms: _69  and  _71
REMARK   31  A    between atoms: _71  and  _72
REMARK   32  A    between atoms: _71  and  _74
REMARK   33  A    between atoms: _74  and  _75
REMARK   34  A    between atoms: _77  and  _79
REMARK   35  A    between atoms: _79  and  _80
REMARK   36  A    between atoms: _79  and  _82
REMARK   37  A    between atoms: _82  and  _83
REMARK   38  A    between atoms: _85  and  _87
REMARK   39  A    between atoms: _87  and  _88
REMARK   40  A    between atoms: _87  and  _90
REMARK   41  A    between atoms: _90  and  _91
REMARK   42  A    between atoms: _94  and  _96
REMARK   43  A    between atoms: _96  and  _97
REMARK   44  A    between atoms: _100  and  _102
REMARK   45  A    between atoms: _102  and  _103
REMARK   46  A    between atoms: _102  and  _105
REMARK   47  A    between atoms: _105  and  _106
REMARK   48  A    between atoms: _109  and  _111
REMARK   49  A    between atoms: _111  and  _112
REMARK   50  A    between atoms: _111  and  _114
REMARK   51  A    between atoms: _114  and  _115
REMARK   52  A    between atoms: _118  and  _120
REMARK   53  A    between atoms: _120  and  _121
REMARK   54  A    between atoms: _120  and  _123
REMARK   55  A    between atoms: _123  and  _124
REMARK   56  A    between atoms: _124  and  _125
REMARK   57  A    between atoms: _125  and  _126
REMARK   58  A    between atoms: _126  and  _127
REMARK   59  A    between atoms: _131  and  _133
REMARK   60  A    between atoms: _133  and  _134
REMARK   61  A    between atoms: _133  and  _136
REMARK   62  A    between atoms: _136  and  _137
REMARK   63  A    between atoms: _140  and  _142
REMARK   64  A    between atoms: _142  and  _143
REMARK   65  A    between atoms: _142  and  _145
REMARK   66  A    between atoms: _145  and  _146
REMARK   67  A    between atoms: _146  and  _147
REMARK   68  A    between atoms: _150  and  _152
REMARK   69  A    between atoms: _152  and  _153
REMARK   70  A    between atoms: _152  and  _155
REMARK   71  A    between atoms: _155  and  _156
REMARK   72  A    between atoms: _159  and  _161
REMARK   73  A    between atoms: _161  and  _162
REMARK   74  A    between atoms: _161  and  _164
REMARK   75  A    between atoms: _164  and  _165
REMARK   76  A    between atoms: _168  and  _170
REMARK   77  A    between atoms: _170  and  _171
REMARK   78  A    between atoms: _170  and  _173
REMARK   79  A    between atoms: _176  and  _178
REMARK   80  A    between atoms: _178  and  _179
REMARK   81  A    between atoms: _178  and  _181
REMARK   82  A    between atoms: _181  and  _182
REMARK   83  A    between atoms: _185  and  _187
REMARK   84  A    between atoms: _187  and  _188
REMARK   85  A    between atoms: _187  and  _190
REMARK   86  A    between atoms: _190  and  _191
REMARK   87  A    between atoms: _194  and  _196
REMARK   88  A    between atoms: _196  and  _197
REMARK   89  A    between atoms: _199  and  _201
REMARK   90  A    between atoms: _201  and  _202
REMARK   91  A    between atoms: _201  and  _204
REMARK   92  A    between atoms: _204  and  _205
REMARK   93  A    between atoms: _208  and  _210
REMARK   94  A    between atoms: _210  and  _211
REMARK   95  A    between atoms: _213  and  _215
REMARK   96  A    between atoms: _215  and  _216
REMARK   97  A    between atoms: _215  and  _218
REMARK   98  A    between atoms: _218  and  _219
REMARK   99  A    between atoms: _219  and  _220
REMARK  100  A    between atoms: _222  and  _224
REMARK  101  A    between atoms: _224  and  _225
REMARK  102  A    between atoms: _224  and  _227
REMARK  103  A    between atoms: _227  and  _228
REMARK  104  A    between atoms: _231  and  _233
REMARK  105  A    between atoms: _233  and  _234
REMARK  106  A    between atoms: _237  and  _239
REMARK  107  A    between atoms: _239  and  _240
REMARK  108  A    between atoms: _239  and  _242
REMARK  109  A    between atoms: _242  and  _243
REMARK  110  A    between atoms: _246  and  _248
REMARK  111  A    between atoms: _248  and  _249
REMARK  112  A    between atoms: _248  and  _251
REMARK  113  A    between atoms: _251  and  _252
REMARK  114  A    between atoms: _255  and  _257
REMARK  115  A    between atoms: _257  and  _258
REMARK  116  A    between atoms: _257  and  _260
REMARK  117  A    between atoms: _260  and  _261
REMARK  118  A    between atoms: _266  and  _268
REMARK  119  A    between atoms: _268  and  _269
REMARK  120  A    between atoms: _268  and  _271
REMARK  121  A    between atoms: _271  and  _272
REMARK  122  A    between atoms: _277  and  _279
REMARK  123  A    between atoms: _279  and  _280
REMARK  124  A    between atoms: _279  and  _282
REMARK  125  A    between atoms: _282  and  _283
REMARK  126  A    between atoms: _286  and  _288
REMARK  127  A    between atoms: _288  and  _289
REMARK  128  A    between atoms: _291  and  _293
REMARK  129  A    between atoms: _293  and  _294
REMARK  130  A    between atoms: _293  and  _296
REMARK  131  A    between atoms: _296  and  _297
REMARK  132  A    between atoms: _300  and  _302
REMARK  133  A    between atoms: _302  and  _303
REMARK  134  A    between atoms: _302  and  _305
REMARK  135  A    between atoms: _305  and  _306
REMARK  136  A    between atoms: _309  and  _311
REMARK  137  A    between atoms: _311  and  _312
REMARK  138  A    between atoms: _315  and  _317
REMARK  139  A    between atoms: _317  and  _318
REMARK  140  A    between atoms: _320  and  _322
REMARK  141  A    between atoms: _322  and  _323
REMARK  142  A    between atoms: _322  and  _325
REMARK  143  A    between atoms: _325  and  _326
REMARK  144  A    between atoms: _332  and  _334
REMARK  145  A    between atoms: _334  and  _335
REMARK  146  A    between atoms: _337  and  _339
REMARK  147  A    between atoms: _339  and  _340
REMARK  148  A    between atoms: _339  and  _342
REMARK  149  A    between atoms: _345  and  _347
REMARK  150  A    between atoms: _347  and  _348
REMARK  151  A    between atoms: _350  and  _352
REMARK  152  A    between atoms: _352  and  _353
REMARK  153  A    between atoms: _352  and  _355
REMARK  154  A    between atoms: _355  and  _356
REMARK  155  A    between atoms: _362  and  _364
REMARK  156  A    between atoms: _364  and  _365
REMARK  157  A    between atoms: _364  and  _367
REMARK  158  A    between atoms: _367  and  _368
REMARK  159  A    between atoms: _373  and  _374
REMARK  160  A    between atoms: _376  and  _378
REMARK  161  A    between atoms: _378  and  _379
REMARK  162  A    between atoms: _382  and  _384
REMARK  163  A    between atoms: _384  and  _385
REMARK  164  A    between atoms: _384  and  _387
REMARK  165  A    between atoms: _390  and  _392
REMARK  166  A    between atoms: _392  and  _393
REMARK  167  A    between atoms: _392  and  _395
REMARK  168  A    between atoms: _398  and  _400
REMARK  169  A    between atoms: _400  and  _401
REMARK  170  A    between atoms: _400  and  _403
REMARK  171  A    between atoms: _403  and  _404
REMARK  172  A    between atoms: _407  and  _409
REMARK  173  A    between atoms: _409  and  _410
REMARK  174  A    between atoms: _409  and  _412
REMARK  175  A    between atoms: _412  and  _413
REMARK  176  A    between atoms: _416  and  _418
REMARK  177  A    between atoms: _418  and  _419
REMARK  178  A    between atoms: _418  and  _421
REMARK  179  A    between atoms: _421  and  _422
REMARK  180  A    between atoms: _422  and  _423
REMARK  181  A    between atoms: _423  and  _424
REMARK  182  A    between atoms: _424  and  _425
REMARK  183  A    between atoms: _429  and  _431
REMARK  184  A    between atoms: _431  and  _432
REMARK  185  A    between atoms: _431  and  _434
REMARK  186  A    between atoms: _434  and  _435
REMARK  187  A    between atoms: _440  and  _442
REMARK  188  A    between atoms: _442  and  _443
REMARK  189  A    between atoms: _445  and  _447
REMARK  190  A    between atoms: _447  and  _448
REMARK  191  A    between atoms: _447  and  _450
REMARK  192  A    between atoms: _450  and  _451
REMARK  193  A    between atoms: _454  and  _456
REMARK  194  A    between atoms: _456  and  _457
REMARK  195  A    between atoms: _456  and  _459
REMARK  196  A    between atoms: _459  and  _460
REMARK  197  A    between atoms: _460  and  _461
REMARK  198  A    between atoms: _461  and  _462
REMARK  199  A    between atoms: _462  and  _463
REMARK  200  A    between atoms: _467  and  _469
REMARK  201  A    between atoms: _469  and  _470
REMARK  202  A    between atoms: _469  and  _472
REMARK  203  A    between atoms: _475  and  _477
REMARK  204  A    between atoms: _477  and  _478
REMARK  205  A    between atoms: _477  and  _480
REMARK  206  A    between atoms: _480  and  _481
REMARK  207  A    between atoms: _484  and  _486
REMARK  208  A    between atoms: _486  and  _487
REMARK  209  A    between atoms: _486  and  _489
REMARK  210  A    between atoms: _489  and  _490
REMARK  211  A    between atoms: _493  and  _495
REMARK  212  A    between atoms: _495  and  _496
REMARK  213  A    between atoms: _495  and  _498
REMARK  214  A    between atoms: _498  and  _499
REMARK  215  A    between atoms: _502  and  _504
REMARK  216  A    between atoms: _504  and  _505
REMARK  217  A    between atoms: _504  and  _507
REMARK  218  A    between atoms: _507  and  _508
REMARK  219  A    between atoms: _508  and  _509
REMARK  220  A    between atoms: _509  and  _510
REMARK  221  A    between atoms: _510  and  _511
REMARK  222  A    between atoms: _515  and  _517
REMARK  223  A    between atoms: _517  and  _518
REMARK  224  A    between atoms: _517  and  _520
REMARK  225  A    between atoms: _520  and  _521
REMARK  226  A    between atoms: _526  and  _527
REMARK                            x       y       z     vdW  Elec       q    Type
REMARK                         _______ _______ _______ _____ _____    ______ ____
ROOT
ATOM      1  O   HOH     1      39.646   1.395  19.181  0.00  0.00    +0.000 OA
ENDROOT
TORSDOF 0
REMARK  Name = ../refined-set-2016/2uwd/2uwd_pocket.pdb
REMARK  226 active torsions:
REMARK  status: ('A' for Active; 'I' for Inactive)
REMARK    1  A    between atoms: _1  and  _3
REMARK    2  A    between atoms: _3  and  _4
REMARK    3  A    between atoms: _3  and  _6
REMARK    4  A    between atoms: _6  and  _7
REMARK    5  A    between atoms: _13  and  _15
REMARK    6  A    between atoms: _15  and  _16
REMARK    7  A    between atoms: _15  and  _18
REMARK    8  A    between atoms: _18  and  _19
REMARK    9  A    between atoms: _22  and  _24
REMARK   10  A    between atoms: _24  and  _25
REMARK   11  A    between atoms: _24  and  _27
REMARK   12  A    between atoms: _27  and  _28
REMARK   13  A    between atoms: _28  and  _29
REMARK   14  A    between atoms: _32  and  _34
REMARK   15  A    between atoms: _34  and  _35
REMARK   16  A    between atoms: _34  and  _37
REMARK   17  A    between atoms: _37  and  _38
REMARK   18  A    between atoms: _41  and  _43
REMARK   19  A    between atoms: _43  and  _44
REMARK   20  A    between atoms: _43  and  _46
REMARK   21  A    between atoms: _46  and  _47
REMARK   22  A    between atoms: _50  and  _52
REMARK   23  A    between atoms: _52  and  _53
REMARK   24  A    between atoms: _52  and  _55
REMARK   25  A    between atoms: _55  and  _56
REMARK   26  A    between atoms: _58  and  _60
REMARK   27  A    between atoms: _60  and  _61
REMARK   28  A    between atoms: _60  and  _63
REMARK   29  A    between atoms: _63  and  _64
REMARK   30  A    between atoms: _69  and  _71
REMARK   31  A    between atoms: _71  and  _72
REMARK   32  A    between atoms: _71  and  _74
REMARK   33  A    between atoms: _74  and  _75
REMARK   34  A    between atoms: _77  and  _79
REMARK   35  A    between atoms: _79  and  _80
REMARK   36  A    between atoms: _79  and  _82
REMARK   37  A    between atoms: _82  and  _83
REMARK   38  A    between atoms: _85  and  _87
REMARK   39  A    between atoms: _87  and  _88
REMARK   40  A    between atoms: _87  and  _90
REMARK   41  A    between atoms: _90  and  _91
REMARK   42  A    between atoms: _94  and  _96
REMARK   43  A    between atoms: _96  and  _97
REMARK   44  A    between atoms: _100  and  _102
REMARK   45  A    between atoms: _102  and  _103
REMARK   46  A    between atoms: _102  and  _105
REMARK   47  A    between atoms: _105  and  _106
REMARK   48  A    between atoms: _109  and  _111
REMARK   49  A    between atoms: _111  and  _112
REMARK   50  A    between atoms: _111  and  _114
REMARK   51  A    between atoms: _114  and  _115
REMARK   52  A    between atoms: _118  and  _120
REMARK   53  A    between atoms: _120  and  _121
REMARK   54  A    between atoms: _120  and  _123
REMARK   55  A    between atoms: _123  and  _124
REMARK   56  A    between atoms: _124  and  _125
REMARK   57  A    between atoms: _125  and  _126
REMARK   58  A    between atoms: _126  and  _127
REMARK   59  A    between atoms: _131  and  _133
REMARK   60  A    between atoms: _133  and  _134
REMARK   61  A    between atoms: _133  and  _136
REMARK   62  A    between atoms: _136  and  _137
REMARK   63  A    between atoms: _140  and  _142
REMARK   64  A    between atoms: _142  and  _143
REMARK   65  A    between atoms: _142  and  _145
REMARK   66  A    between atoms: _145  and  _146
REMARK   67  A    between atoms: _146  and  _147
REMARK   68  A    between atoms: _150  and  _152
REMARK   69  A    between atoms: _152  and  _153
REMARK   70  A    between atoms: _152  and  _155
REMARK   71  A    between atoms: _155  and  _156
REMARK   72  A    between atoms: _159  and  _161
REMARK   73  A    between atoms: _161  and  _162
REMARK   74  A    between atoms: _161  and  _164
REMARK   75  A    between atoms: _164  and  _165
REMARK   76  A    between atoms: _168  and  _170
REMARK   77  A    between atoms: _170  and  _171
REMARK   78  A    between atoms: _170  and  _173
REMARK   79  A    between atoms: _176  and  _178
REMARK   80  A    between atoms: _178  and  _179
REMARK   81  A    between atoms: _178  and  _181
REMARK   82  A    between atoms: _181  and  _182
REMARK   83  A    between atoms: _185  and  _187
REMARK   84  A    between atoms: _187  and  _188
REMARK   85  A    between atoms: _187  and  _190
REMARK   86  A    between atoms: _190  and  _191
REMARK   87  A    between atoms: _194  and  _196
REMARK   88  A    between atoms: _196  and  _197
REMARK   89  A    between atoms: _199  and  _201
REMARK   90  A    between atoms: _201  and  _202
REMARK   91  A    between atoms: _201  and  _204
REMARK   92  A    between atoms: _204  and  _205
REMARK   93  A    between atoms: _208  and  _210
REMARK   94  A    between atoms: _210  and  _211
REMARK   95  A    between atoms: _213  and  _215
REMARK   96  A    between atoms: _215  and  _216
REMARK   97  A    between atoms: _215  and  _218
REMARK   98  A    between atoms: _218  and  _219
REMARK   99  A    between atoms: _219  and  _220
REMARK  100  A    between atoms: _222  and  _224
REMARK  101  A    between atoms: _224  and  _225
REMARK  102  A    between atoms: _224  and  _227
REMARK  103  A    between atoms: _227  and  _228
REMARK  104  A    between atoms: _231  and  _233
REMARK  105  A    between atoms: _233  and  _234
REMARK  106  A    between atoms: _237  and  _239
REMARK  107  A    between atoms: _239  and  _240
REMARK  108  A    between atoms: _239  and  _242
REMARK  109  A    between atoms: _242  and  _243
REMARK  110  A    between atoms: _246  and  _248
REMARK  111  A    between atoms: _248  and  _249
REMARK  112  A    between atoms: _248  and  _251
REMARK  113  A    between atoms: _251  and  _252
REMARK  114  A    between atoms: _255  and  _257
REMARK  115  A    between atoms: _257  and  _258
REMARK  116  A    between atoms: _257  and  _260
REMARK  117  A    between atoms: _260  and  _261
REMARK  118  A    between atoms: _266  and  _268
REMARK  119  A    between atoms: _268  and  _269
REMARK  120  A    between atoms: _268  and  _271
REMARK  121  A    between atoms: _271  and  _272
REMARK  122  A    between atoms: _277  and  _279
REMARK  123  A    between atoms: _279  and  _280
REMARK  124  A    between atoms: _279  and  _282
REMARK  125  A    between atoms: _282  and  _283
REMARK  126  A    between atoms: _286  and  _288
REMARK  127  A    between atoms: _288  and  _289
REMARK  128  A    between atoms: _291  and  _293
REMARK  129  A    between atoms: _293  and  _294
REMARK  130  A    between atoms: _293  and  _296
REMARK  131  A    between atoms: _296  and  _297
REMARK  132  A    between atoms: _300  and  _302
REMARK  133  A    between atoms: _302  and  _303
REMARK  134  A    between atoms: _302  and  _305
REMARK  135  A    between atoms: _305  and  _306
REMARK  136  A    between atoms: _309  and  _311
REMARK  137  A    between atoms: _311  and  _312
REMARK  138  A    between atoms: _315  and  _317
REMARK  139  A    between atoms: _317  and  _318
REMARK  140  A    between atoms: _320  and  _322
REMARK  141  A    between atoms: _322  and  _323
REMARK  142  A    between atoms: _322  and  _325
REMARK  143  A    between atoms: _325  and  _326
REMARK  144  A    between atoms: _332  and  _334
REMARK  145  A    between atoms: _334  and  _335
REMARK  146  A    between atoms: _337  and  _339
REMARK  147  A    between atoms: _339  and  _340
REMARK  148  A    between atoms: _339  and  _342
REMARK  149  A    between atoms: _345  and  _347
REMARK  150  A    between atoms: _347  and  _348
REMARK  151  A    between atoms: _350  and  _352
REMARK  152  A    between atoms: _352  and  _353
REMARK  153  A    between atoms: _352  and  _355
REMARK  154  A    between atoms: _355  and  _356
REMARK  155  A    between atoms: _362  and  _364
REMARK  156  A    between atoms: _364  and  _365
REMARK  157  A    between atoms: _364  and  _367
REMARK  158  A    between atoms: _367  and  _368
REMARK  159  A    between atoms: _373  and  _374
REMARK  160  A    between atoms: _376  and  _378
REMARK  161  A    between atoms: _378  and  _379
REMARK  162  A    between atoms: _382  and  _384
REMARK  163  A    between atoms: _384  and  _385
REMARK  164  A    between atoms: _384  and  _387
REMARK  165  A    between atoms: _390  and  _392
REMARK  166  A    between atoms: _392  and  _393
REMARK  167  A    between atoms: _392  and  _395
REMARK  168  A    between atoms: _398  and  _400
REMARK  169  A    between atoms: _400  and  _401
REMARK  170  A    between atoms: _400  and  _403
REMARK  171  A    between atoms: _403  and  _404
REMARK  172  A    between atoms: _407  and  _409
REMARK  173  A    between atoms: _409  and  _410
REMARK  174  A    between atoms: _409  and  _412
REMARK  175  A    between atoms: _412  and  _413
REMARK  176  A    between atoms: _416  and  _418
REMARK  177  A    between atoms: _418  and  _419
REMARK  178  A    between atoms: _418  and  _421
REMARK  179  A    between atoms: _421  and  _422
REMARK  180  A    between atoms: _422  and  _423
REMARK  181  A    between atoms: _423  and  _424
REMARK  182  A    between atoms: _424  and  _425
REMARK  183  A    between atoms: _429  and  _431
REMARK  184  A    between atoms: _431  and  _432
REMARK  185  A    between atoms: _431  and  _434
REMARK  186  A    between atoms: _434  and  _435
REMARK  187  A    between atoms: _440  and  _442
REMARK  188  A    between atoms: _442  and  _443
REMARK  189  A    between atoms: _445  and  _447
REMARK  190  A    between atoms: _447  and  _448
REMARK  191  A    between atoms: _447  and  _450
REMARK  192  A    between atoms: _450  and  _451
REMARK  193  A    between atoms: _454  and  _456
REMARK  194  A    between atoms: _456  and  _457
REMARK  195  A    between atoms: _456  and  _459
REMARK  196  A    between atoms: _459  and  _460
REMARK  197  A    between atoms: _460  and  _461
REMARK  198  A    between atoms: _461  and  _462
REMARK  199  A    between atoms: _462  and  _463
REMARK  200  A    between atoms: _467  and  _469
REMARK  201  A    between atoms: _469  and  _470
REMARK  202  A    between atoms: _469  and  _472
REMARK  203  A    between atoms: _475  and  _477
REMARK  204  A    between atoms: _477  and  _478
REMARK  205  A    between atoms: _477  and  _480
REMARK  206  A    between atoms: _480  and  _481
REMARK  207  A    between atoms: _484  and  _486
REMARK  208  A    between atoms: _486  and  _487
REMARK  209  A    between atoms: _486  and  _489
REMARK  210  A    between atoms: _489  and  _490
REMARK  211  A    between atoms: _493  and  _495
REMARK  212  A    between atoms: _495  and  _496
REMARK  213  A    between atoms: _495  and  _498
REMARK  214  A    between atoms: _498  and  _499
REMARK  215  A    between atoms: _502  and  _504
REMARK  216  A    between atoms: _504  and  _505
REMARK  217  A    between atoms: _504  and  _507
REMARK  218  A    between atoms: _507  and  _508
REMARK  219  A    between atoms: _508  and  _509
REMARK  220  A    between atoms: _509  and  _510
REMARK  221  A    between atoms: _510  and  _511
REMARK  222  A    between atoms: _515  and  _517
REMARK  223  A    between atoms: _517  and  _518
REMARK  224  A    between atoms: _517  and  _520
REMARK  225  A    between atoms: _520  and  _521
REMARK  226  A    between atoms: _526  and  _527
REMARK                            x       y       z     vdW  Elec       q    Type
REMARK                         _______ _______ _______ _____ _____    ______ ____
ROOT
ATOM      1  O   HOH     1      39.148   4.973  22.804  0.00  0.00    +0.000 OA
ENDROOT
TORSDOF 0
REMARK  Name = ../refined-set-2016/2uwd/2uwd_pocket.pdb
REMARK  226 active torsions:
REMARK  status: ('A' for Active; 'I' for Inactive)
REMARK    1  A    between atoms: _1  and  _3
REMARK    2  A    between atoms: _3  and  _4
REMARK    3  A    between atoms: _3  and  _6
REMARK    4  A    between atoms: _6  and  _7
REMARK    5  A    between atoms: _13  and  _15
REMARK    6  A    between atoms: _15  and  _16
REMARK    7  A    between atoms: _15  and  _18
REMARK    8  A    between atoms: _18  and  _19
REMARK    9  A    between atoms: _22  and  _24
REMARK   10  A    between atoms: _24  and  _25
REMARK   11  A    between atoms: _24  and  _27
REMARK   12  A    between atoms: _27  and  _28
REMARK   13  A    between atoms: _28  and  _29
REMARK   14  A    between atoms: _32  and  _34
REMARK   15  A    between atoms: _34  and  _35
REMARK   16  A    between atoms: _34  and  _37
REMARK   17  A    between atoms: _37  and  _38
REMARK   18  A    between atoms: _41  and  _43
REMARK   19  A    between atoms: _43  and  _44
REMARK   20  A    between atoms: _43  and  _46
REMARK   21  A    between atoms: _46  and  _47
REMARK   22  A    between atoms: _50  and  _52
REMARK   23  A    between atoms: _52  and  _53
REMARK   24  A    between atoms: _52  and  _55
REMARK   25  A    between atoms: _55  and  _56
REMARK   26  A    between atoms: _58  and  _60
REMARK   27  A    between atoms: _60  and  _61
REMARK   28  A    between atoms: _60  and  _63
REMARK   29  A    between atoms: _63  and  _64
REMARK   30  A    between atoms: _69  and  _71
REMARK   31  A    between atoms: _71  and  _72
REMARK   32  A    between atoms: _71  and  _74
REMARK   33  A    between atoms: _74  and  _75
REMARK   34  A    between atoms: _77  and  _79
REMARK   35  A    between atoms: _79  and  _80
REMARK   36  A    between atoms: _79  and  _82
REMARK   37  A    between atoms: _82  and  _83
REMARK   38  A    between atoms: _85  and  _87
REMARK   39  A    between atoms: _87  and  _88
REMARK   40  A    between atoms: _87  and  _90
REMARK   41  A    between atoms: _90  and  _91
REMARK   42  A    between atoms: _94  and  _96
REMARK   43  A    between atoms: _96  and  _97
REMARK   44  A    between atoms: _100  and  _102
REMARK   45  A    between atoms: _102  and  _103
REMARK   46  A    between atoms: _102  and  _105
REMARK   47  A    between atoms: _105  and  _106
REMARK   48  A    between atoms: _109  and  _111
REMARK   49  A    between atoms: _111  and  _112
REMARK   50  A    between atoms: _111  and  _114
REMARK   51  A    between atoms: _114  and  _115
REMARK   52  A    between atoms: _118  and  _120
REMARK   53  A    between atoms: _120  and  _121
REMARK   54  A    between atoms: _120  and  _123
REMARK   55  A    between atoms: _123  and  _124
REMARK   56  A    between atoms: _124  and  _125
REMARK   57  A    between atoms: _125  and  _126
REMARK   58  A    between atoms: _126  and  _127
REMARK   59  A    between atoms: _131  and  _133
REMARK   60  A    between atoms: _133  and  _134
REMARK   61  A    between atoms: _133  and  _136
REMARK   62  A    between atoms: _136  and  _137
REMARK   63  A    between atoms: _140  and  _142
REMARK   64  A    between atoms: _142  and  _143
REMARK   65  A    between atoms: _142  and  _145
REMARK   66  A    between atoms: _145  and  _146
REMARK   67  A    between atoms: _146  and  _147
REMARK   68  A    between atoms: _150  and  _152
REMARK   69  A    between atoms: _152  and  _153
REMARK   70  A    between atoms: _152  and  _155
REMARK   71  A    between atoms: _155  and  _156
REMARK   72  A    between atoms: _159  and  _161
REMARK   73  A    between atoms: _161  and  _162
REMARK   74  A    between atoms: _161  and  _164
REMARK   75  A    between atoms: _164  and  _165
REMARK   76  A    between atoms: _168  and  _170
REMARK   77  A    between atoms: _170  and  _171
REMARK   78  A    between atoms: _170  and  _173
REMARK   79  A    between atoms: _176  and  _178
REMARK   80  A    between atoms: _178  and  _179
REMARK   81  A    between atoms: _178  and  _181
REMARK   82  A    between atoms: _181  and  _182
REMARK   83  A    between atoms: _185  and  _187
REMARK   84  A    between atoms: _187  and  _188
REMARK   85  A    between atoms: _187  and  _190
REMARK   86  A    between atoms: _190  and  _191
REMARK   87  A    between atoms: _194  and  _196
REMARK   88  A    between atoms: _196  and  _197
REMARK   89  A    between atoms: _199  and  _201
REMARK   90  A    between atoms: _201  and  _202
REMARK   91  A    between atoms: _201  and  _204
REMARK   92  A    between atoms: _204  and  _205
REMARK   93  A    between atoms: _208  and  _210
REMARK   94  A    between atoms: _210  and  _211
REMARK   95  A    between atoms: _213  and  _215
REMARK   96  A    between atoms: _215  and  _216
REMARK   97  A    between atoms: _215  and  _218
REMARK   98  A    between atoms: _218  and  _219
REMARK   99  A    between atoms: _219  and  _220
REMARK  100  A    between atoms: _222  and  _224
REMARK  101  A    between atoms: _224  and  _225
REMARK  102  A    between atoms: _224  and  _227
REMARK  103  A    between atoms: _227  and  _228
REMARK  104  A    between atoms: _231  and  _233
REMARK  105  A    between atoms: _233  and  _234
REMARK  106  A    between atoms: _237  and  _239
REMARK  107  A    between atoms: _239  and  _240
REMARK  108  A    between atoms: _239  and  _242
REMARK  109  A    between atoms: _242  and  _243
REMARK  110  A    between atoms: _246  and  _248
REMARK  111  A    between atoms: _248  and  _249
REMARK  112  A    between atoms: _248  and  _251
REMARK  113  A    between atoms: _251  and  _252
REMARK  114  A    between atoms: _255  and  _257
REMARK  115  A    between atoms: _257  and  _258
REMARK  116  A    between atoms: _257  and  _260
REMARK  117  A    between atoms: _260  and  _261
REMARK  118  A    between atoms: _266  and  _268
REMARK  119  A    between atoms: _268  and  _269
REMARK  120  A    between atoms: _268  and  _271
REMARK  121  A    between atoms: _271  and  _272
REMARK  122  A    between atoms: _277  and  _279
REMARK  123  A    between atoms: _279  and  _280
REMARK  124  A    between atoms: _279  and  _282
REMARK  125  A    between atoms: _282  and  _283
REMARK  126  A    between atoms: _286  and  _288
REMARK  127  A    between atoms: _288  and  _289
REMARK  128  A    between atoms: _291  and  _293
REMARK  129  A    between atoms: _293  and  _294
REMARK  130  A    between atoms: _293  and  _296
REMARK  131  A    between atoms: _296  and  _297
REMARK  132  A    between atoms: _300  and  _302
REMARK  133  A    between atoms: _302  and  _303
REMARK  134  A    between atoms: _302  and  _305
REMARK  135  A    between atoms: _305  and  _306
REMARK  136  A    between atoms: _309  and  _311
REMARK  137  A    between atoms: _311  and  _312
REMARK  138  A    between atoms: _315  and  _317
REMARK  139  A    between atoms: _317  and  _318
REMARK  140  A    between atoms: _320  and  _322
REMARK  141  A    between atoms: _322  and  _323
REMARK  142  A    between atoms: _322  and  _325
REMARK  143  A    between atoms: _325  and  _326
REMARK  144  A    between atoms: _332  and  _334
REMARK  145  A    between atoms: _334  and  _335
REMARK  146  A    between atoms: _337  and  _339
REMARK  147  A    between atoms: _339  and  _340
REMARK  148  A    between atoms: _339  and  _342
REMARK  149  A    between atoms: _345  and  _347
REMARK  150  A    between atoms: _347  and  _348
REMARK  151  A    between atoms: _350  and  _352
REMARK  152  A    between atoms: _352  and  _353
REMARK  153  A    between atoms: _352  and  _355
REMARK  154  A    between atoms: _355  and  _356
REMARK  155  A    between atoms: _362  and  _364
REMARK  156  A    between atoms: _364  and  _365
REMARK  157  A    between atoms: _364  and  _367
REMARK  158  A    between atoms: _367  and  _368
REMARK  159  A    between atoms: _373  and  _374
REMARK  160  A    between atoms: _376  and  _378
REMARK  161  A    between atoms: _378  and  _379
REMARK  162  A    between atoms: _382  and  _384
REMARK  163  A    between atoms: _384  and  _385
REMARK  164  A    between atoms: _384  and  _387
REMARK  165  A    between atoms: _390  and  _392
REMARK  166  A    between atoms: _392  and  _393
REMARK  167  A    between atoms: _392  and  _395
REMARK  168  A    between atoms: _398  and  _400
REMARK  169  A    between atoms: _400  and  _401
REMARK  170  A    between atoms: _400  and  _403
REMARK  171  A    between atoms: _403  and  _404
REMARK  172  A    between atoms: _407  and  _409
REMARK  173  A    between atoms: _409  and  _410
REMARK  174  A    between atoms: _409  and  _412
REMARK  175  A    between atoms: _412  and  _413
REMARK  176  A    between atoms: _416  and  _418
REMARK  177  A    between atoms: _418  and  _419
REMARK  178  A    between atoms: _418  and  _421
REMARK  179  A    between atoms: _421  and  _422
REMARK  180  A    between atoms: _422  and  _423
REMARK  181  A    between atoms: _423  and  _424
REMARK  182  A    between atoms: _424  and  _425
REMARK  183  A    between atoms: _429  and  _431
REMARK  184  A    between atoms: _431  and  _432
REMARK  185  A    between atoms: _431  and  _434
REMARK  186  A    between atoms: _434  and  _435
REMARK  187  A    between atoms: _440  and  _442
REMARK  188  A    between atoms: _442  and  _443
REMARK  189  A    between atoms: _445  and  _447
REMARK  190  A    between atoms: _447  and  _448
REMARK  191  A    between atoms: _447  and  _450
REMARK  192  A    between atoms: _450  and  _451
REMARK  193  A    between atoms: _454  and  _456
REMARK  194  A    between atoms: _456  and  _457
REMARK  195  A    between atoms: _456  and  _459
REMARK  196  A    between atoms: _459  and  _460
REMARK  197  A    between atoms: _460  and  _461
REMARK  198  A    between atoms: _461  and  _462
REMARK  199  A    between atoms: _462  and  _463
REMARK  200  A    between atoms: _467  and  _469
REMARK  201  A    between atoms: _469  and  _470
REMARK  202  A    between atoms: _469  and  _472
REMARK  203  A    between atoms: _475  and  _477
REMARK  204  A    between atoms: _477  and  _478
REMARK  205  A    between atoms: _477  and  _480
REMARK  206  A    between atoms: _480  and  _481
REMARK  207  A    between atoms: _484  and  _486
REMARK  208  A    between atoms: _486  and  _487
REMARK  209  A    between atoms: _486  and  _489
REMARK  210  A    between atoms: _489  and  _490
REMARK  211  A    between atoms: _493  and  _495
REMARK  212  A    between atoms: _495  and  _496
REMARK  213  A    between atoms: _495  and  _498
REMARK  214  A    between atoms: _498  and  _499
REMARK  215  A    between atoms: _502  and  _504
REMARK  216  A    between atoms: _504  and  _505
REMARK  217  A    between atoms: _504  and  _507
REMARK  218  A    between atoms: _507  and  _508
REMARK  219  A    between atoms: _508  and  _509
REMARK  220  A    between atoms: _509  and  _510
REMARK  221  A    between atoms: _510  and  _511
REMARK  222  A    between atoms: _515  and  _517
REMARK  223  A    between atoms: _517  and  _518
REMARK  224  A    between atoms: _517  and  _520
REMARK  225  A    between atoms: _520  and  _521
REMARK  226  A    between atoms: _526  and  _527
REMARK                            x       y       z     vdW  Elec       q    Type
REMARK                         _______ _______ _______ _____ _____    ______ ____
ROOT
ATOM      1  O   HOH     1      36.360   6.738  18.410  0.00  0.00    +0.000 OA
ENDROOT
TORSDOF 0
REMARK  Name = ../refined-set-2016/2uwd/2uwd_pocket.pdb
REMARK  226 active torsions:
REMARK  status: ('A' for Active; 'I' for Inactive)
REMARK    1  A    between atoms: _1  and  _3
REMARK    2  A    between atoms: _3  and  _4
REMARK    3  A    between atoms: _3  and  _6
REMARK    4  A    between atoms: _6  and  _7
REMARK    5  A    between atoms: _13  and  _15
REMARK    6  A    between atoms: _15  and  _16
REMARK    7  A    between atoms: _15  and  _18
REMARK    8  A    between atoms: _18  and  _19
REMARK    9  A    between atoms: _22  and  _24
REMARK   10  A    between atoms: _24  and  _25
REMARK   11  A    between atoms: _24  and  _27
REMARK   12  A    between atoms: _27  and  _28
REMARK   13  A    between atoms: _28  and  _29
REMARK   14  A    between atoms: _32  and  _34
REMARK   15  A    between atoms: _34  and  _35
REMARK   16  A    between atoms: _34  and  _37
REMARK   17  A    between atoms: _37  and  _38
REMARK   18  A    between atoms: _41  and  _43
REMARK   19  A    between atoms: _43  and  _44
REMARK   20  A    between atoms: _43  and  _46
REMARK   21  A    between atoms: _46  and  _47
REMARK   22  A    between atoms: _50  and  _52
REMARK   23  A    between atoms: _52  and  _53
REMARK   24  A    between atoms: _52  and  _55
REMARK   25  A    between atoms: _55  and  _56
REMARK   26  A    between atoms: _58  and  _60
REMARK   27  A    between atoms: _60  and  _61
REMARK   28  A    between atoms: _60  and  _63
REMARK   29  A    between atoms: _63  and  _64
REMARK   30  A    between atoms: _69  and  _71
REMARK   31  A    between atoms: _71  and  _72
REMARK   32  A    between atoms: _71  and  _74
REMARK   33  A    between atoms: _74  and  _75
REMARK   34  A    between atoms: _77  and  _79
REMARK   35  A    between atoms: _79  and  _80
REMARK   36  A    between atoms: _79  and  _82
REMARK   37  A    between atoms: _82  and  _83
REMARK   38  A    between atoms: _85  and  _87
REMARK   39  A    between atoms: _87  and  _88
REMARK   40  A    between atoms: _87  and  _90
REMARK   41  A    between atoms: _90  and  _91
REMARK   42  A    between atoms: _94  and  _96
REMARK   43  A    between atoms: _96  and  _97
REMARK   44  A    between atoms: _100  and  _102
REMARK   45  A    between atoms: _102  and  _103
REMARK   46  A    between atoms: _102  and  _105
REMARK   47  A    between atoms: _105  and  _106
REMARK   48  A    between atoms: _109  and  _111
REMARK   49  A    between atoms: _111  and  _112
REMARK   50  A    between atoms: _111  and  _114
REMARK   51  A    between atoms: _114  and  _115
REMARK   52  A    between atoms: _118  and  _120
REMARK   53  A    between atoms: _120  and  _121
REMARK   54  A    between atoms: _120  and  _123
REMARK   55  A    between atoms: _123  and  _124
REMARK   56  A    between atoms: _124  and  _125
REMARK   57  A    between atoms: _125  and  _126
REMARK   58  A    between atoms: _126  and  _127
REMARK   59  A    between atoms: _131  and  _133
REMARK   60  A    between atoms: _133  and  _134
REMARK   61  A    between atoms: _133  and  _136
REMARK   62  A    between atoms: _136  and  _137
REMARK   63  A    between atoms: _140  and  _142
REMARK   64  A    between atoms: _142  and  _143
REMARK   65  A    between atoms: _142  and  _145
REMARK   66  A    between atoms: _145  and  _146
REMARK   67  A    between atoms: _146  and  _147
REMARK   68  A    between atoms: _150  and  _152
REMARK   69  A    between atoms: _152  and  _153
REMARK   70  A    between atoms: _152  and  _155
REMARK   71  A    between atoms: _155  and  _156
REMARK   72  A    between atoms: _159  and  _161
REMARK   73  A    between atoms: _161  and  _162
REMARK   74  A    between atoms: _161  and  _164
REMARK   75  A    between atoms: _164  and  _165
REMARK   76  A    between atoms: _168  and  _170
REMARK   77  A    between atoms: _170  and  _171
REMARK   78  A    between atoms: _170  and  _173
REMARK   79  A    between atoms: _176  and  _178
REMARK   80  A    between atoms: _178  and  _179
REMARK   81  A    between atoms: _178  and  _181
REMARK   82  A    between atoms: _181  and  _182
REMARK   83  A    between atoms: _185  and  _187
REMARK   84  A    between atoms: _187  and  _188
REMARK   85  A    between atoms: _187  and  _190
REMARK   86  A    between atoms: _190  and  _191
REMARK   87  A    between atoms: _194  and  _196
REMARK   88  A    between atoms: _196  and  _197
REMARK   89  A    between atoms: _199  and  _201
REMARK   90  A    between atoms: _201  and  _202
REMARK   91  A    between atoms: _201  and  _204
REMARK   92  A    between atoms: _204  and  _205
REMARK   93  A    between atoms: _208  and  _210
REMARK   94  A    between atoms: _210  and  _211
REMARK   95  A    between atoms: _213  and  _215
REMARK   96  A    between atoms: _215  and  _216
REMARK   97  A    between atoms: _215  and  _218
REMARK   98  A    between atoms: _218  and  _219
REMARK   99  A    between atoms: _219  and  _220
REMARK  100  A    between atoms: _222  and  _224
REMARK  101  A    between atoms: _224  and  _225
REMARK  102  A    between atoms: _224  and  _227
REMARK  103  A    between atoms: _227  and  _228
REMARK  104  A    between atoms: _231  and  _233
REMARK  105  A    between atoms: _233  and  _234
REMARK  106  A    between atoms: _237  and  _239
REMARK  107  A    between atoms: _239  and  _240
REMARK  108  A    between atoms: _239  and  _242
REMARK  109  A    between atoms: _242  and  _243
REMARK  110  A    between atoms: _246  and  _248
REMARK  111  A    between atoms: _248  and  _249
REMARK  112  A    between atoms: _248  and  _251
REMARK  113  A    between atoms: _251  and  _252
REMARK  114  A    between atoms: _255  and  _257
REMARK  115  A    between atoms: _257  and  _258
REMARK  116  A    between atoms: _257  and  _260
REMARK  117  A    between atoms: _260  and  _261
REMARK  118  A    between atoms: _266  and  _268
REMARK  119  A    between atoms: _268  and  _269
REMARK  120  A    between atoms: _268  and  _271
REMARK  121  A    between atoms: _271  and  _272
REMARK  122  A    between atoms: _277  and  _279
REMARK  123  A    between atoms: _279  and  _280
REMARK  124  A    between atoms: _279  and  _282
REMARK  125  A    between atoms: _282  and  _283
REMARK  126  A    between atoms: _286  and  _288
REMARK  127  A    between atoms: _288  and  _289
REMARK  128  A    between atoms: _291  and  _293
REMARK  129  A    between atoms: _293  and  _294
REMARK  130  A    between atoms: _293  and  _296
REMARK  131  A    between atoms: _296  and  _297
REMARK  132  A    between atoms: _300  and  _302
REMARK  133  A    between atoms: _302  and  _303
REMARK  134  A    between atoms: _302  and  _305
REMARK  135  A    between atoms: _305  and  _306
REMARK  136  A    between atoms: _309  and  _311
REMARK  137  A    between atoms: _311  and  _312
REMARK  138  A    between atoms: _315  and  _317
REMARK  139  A    between atoms: _317  and  _318
REMARK  140  A    between atoms: _320  and  _322
REMARK  141  A    between atoms: _322  and  _323
REMARK  142  A    between atoms: _322  and  _325
REMARK  143  A    between atoms: _325  and  _326
REMARK  144  A    between atoms: _332  and  _334
REMARK  145  A    between atoms: _334  and  _335
REMARK  146  A    between atoms: _337  and  _339
REMARK  147  A    between atoms: _339  and  _340
REMARK  148  A    between atoms: _339  and  _342
REMARK  149  A    between atoms: _345  and  _347
REMARK  150  A    between atoms: _347  and  _348
REMARK  151  A    between atoms: _350  and  _352
REMARK  152  A    between atoms: _352  and  _353
REMARK  153  A    between atoms: _352  and  _355
REMARK  154  A    between atoms: _355  and  _356
REMARK  155  A    between atoms: _362  and  _364
REMARK  156  A    between atoms: _364  and  _365
REMARK  157  A    between atoms: _364  and  _367
REMARK  158  A    between atoms: _367  and  _368
REMARK  159  A    between atoms: _373  and  _374
REMARK  160  A    between atoms: _376  and  _378
REMARK  161  A    between atoms: _378  and  _379
REMARK  162  A    between atoms: _382  and  _384
REMARK  163  A    between atoms: _384  and  _385
REMARK  164  A    between atoms: _384  and  _387
REMARK  165  A    between atoms: _390  and  _392
REMARK  166  A    between atoms: _392  and  _393
REMARK  167  A    between atoms: _392  and  _395
REMARK  168  A    between atoms: _398  and  _400
REMARK  169  A    between atoms: _400  and  _401
REMARK  170  A    between atoms: _400  and  _403
REMARK  171  A    between atoms: _403  and  _404
REMARK  172  A    between atoms: _407  and  _409
REMARK  173  A    between atoms: _409  and  _410
REMARK  174  A    between atoms: _409  and  _412
REMARK  175  A    between atoms: _412  and  _413
REMARK  176  A    between atoms: _416  and  _418
REMARK  177  A    between atoms: _418  and  _419
REMARK  178  A    between atoms: _418  and  _421
REMARK  179  A    between atoms: _421  and  _422
REMARK  180  A    between atoms: _422  and  _423
REMARK  181  A    between atoms: _423  and  _424
REMARK  182  A    between atoms: _424  and  _425
REMARK  183  A    between atoms: _429  and  _431
REMARK  184  A    between atoms: _431  and  _432
REMARK  185  A    between atoms: _431  and  _434
REMARK  186  A    between atoms: _434  and  _435
REMARK  187  A    between atoms: _440  and  _442
REMARK  188  A    between atoms: _442  and  _443
REMARK  189  A    between atoms: _445  and  _447
REMARK  190  A    between atoms: _447  and  _448
REMARK  191  A    between atoms: _447  and  _450
REMARK  192  A    between atoms: _450  and  _451
REMARK  193  A    between atoms: _454  and  _456
REMARK  194  A    between atoms: _456  and  _457
REMARK  195  A    between atoms: _456  and  _459
REMARK  196  A    between atoms: _459  and  _460
REMARK  197  A    between atoms: _460  and  _461
REMARK  198  A    between atoms: _461  and  _462
REMARK  199  A    between atoms: _462  and  _463
REMARK  200  A    between atoms: _467  and  _469
REMARK  201  A    between atoms: _469  and  _470
REMARK  202  A    between atoms: _469  and  _472
REMARK  203  A    between atoms: _475  and  _477
REMARK  204  A    between atoms: _477  and  _478
REMARK  205  A    between atoms: _477  and  _480
REMARK  206  A    between atoms: _480  and  _481
REMARK  207  A    between atoms: _484  and  _486
REMARK  208  A    between atoms: _486  and  _487
REMARK  209  A    between atoms: _486  and  _489
REMARK  210  A    between atoms: _489  and  _490
REMARK  211  A    between atoms: _493  and  _495
REMARK  212  A    between atoms: _495  and  _496
REMARK  213  A    between atoms: _495  and  _498
REMARK  214  A    between atoms: _498  and  _499
REMARK  215  A    between atoms: _502  and  _504
REMARK  216  A    between atoms: _504  and  _505
REMARK  217  A    between atoms: _504  and  _507
REMARK  218  A    between atoms: _507  and  _508
REMARK  219  A    between atoms: _508  and  _509
REMARK  220  A    between atoms: _509  and  _510
REMARK  221  A    between atoms: _510  and  _511
REMARK  222  A    between atoms: _515  and  _517
REMARK  223  A    between atoms: _517  and  _518
REMARK  224  A    between atoms: _517  and  _520
REMARK  225  A    between atoms: _520  and  _521
REMARK  226  A    between atoms: _526  and  _527
REMARK                            x       y       z     vdW  Elec       q    Type
REMARK                         _______ _______ _______ _____ _____    ______ ____
ROOT
ATOM      1  O   HOH     1      36.533   8.928  20.385  0.00  0.00    +0.000 OA
ENDROOT
TORSDOF 0
REMARK  Name = ../refined-set-2016/2uwd/2uwd_pocket.pdb
REMARK  226 active torsions:
REMARK  status: ('A' for Active; 'I' for Inactive)
REMARK    1  A    between atoms: _1  and  _3
REMARK    2  A    between atoms: _3  and  _4
REMARK    3  A    between atoms: _3  and  _6
REMARK    4  A    between atoms: _6  and  _7
REMARK    5  A    between atoms: _13  and  _15
REMARK    6  A    between atoms: _15  and  _16
REMARK    7  A    between atoms: _15  and  _18
REMARK    8  A    between atoms: _18  and  _19
REMARK    9  A    between atoms: _22  and  _24
REMARK   10  A    between atoms: _24  and  _25
REMARK   11  A    between atoms: _24  and  _27
REMARK   12  A    between atoms: _27  and  _28
REMARK   13  A    between atoms: _28  and  _29
REMARK   14  A    between atoms: _32  and  _34
REMARK   15  A    between atoms: _34  and  _35
REMARK   16  A    between atoms: _34  and  _37
REMARK   17  A    between atoms: _37  and  _38
REMARK   18  A    between atoms: _41  and  _43
REMARK   19  A    between atoms: _43  and  _44
REMARK   20  A    between atoms: _43  and  _46
REMARK   21  A    between atoms: _46  and  _47
REMARK   22  A    between atoms: _50  and  _52
REMARK   23  A    between atoms: _52  and  _53
REMARK   24  A    between atoms: _52  and  _55
REMARK   25  A    between atoms: _55  and  _56
REMARK   26  A    between atoms: _58  and  _60
REMARK   27  A    between atoms: _60  and  _61
REMARK   28  A    between atoms: _60  and  _63
REMARK   29  A    between atoms: _63  and  _64
REMARK   30  A    between atoms: _69  and  _71
REMARK   31  A    between atoms: _71  and  _72
REMARK   32  A    between atoms: _71  and  _74
REMARK   33  A    between atoms: _74  and  _75
REMARK   34  A    between atoms: _77  and  _79
REMARK   35  A    between atoms: _79  and  _80
REMARK   36  A    between atoms: _79  and  _82
REMARK   37  A    between atoms: _82  and  _83
REMARK   38  A    between atoms: _85  and  _87
REMARK   39  A    between atoms: _87  and  _88
REMARK   40  A    between atoms: _87  and  _90
REMARK   41  A    between atoms: _90  and  _91
REMARK   42  A    between atoms: _94  and  _96
REMARK   43  A    between atoms: _96  and  _97
REMARK   44  A    between atoms: _100  and  _102
REMARK   45  A    between atoms: _102  and  _103
REMARK   46  A    between atoms: _102  and  _105
REMARK   47  A    between atoms: _105  and  _106
REMARK   48  A    between atoms: _109  and  _111
REMARK   49  A    between atoms: _111  and  _112
REMARK   50  A    between atoms: _111  and  _114
REMARK   51  A    between atoms: _114  and  _115
REMARK   52  A    between atoms: _118  and  _120
REMARK   53  A    between atoms: _120  and  _121
REMARK   54  A    between atoms: _120  and  _123
REMARK   55  A    between atoms: _123  and  _124
REMARK   56  A    between atoms: _124  and  _125
REMARK   57  A    between atoms: _125  and  _126
REMARK   58  A    between atoms: _126  and  _127
REMARK   59  A    between atoms: _131  and  _133
REMARK   60  A    between atoms: _133  and  _134
REMARK   61  A    between atoms: _133  and  _136
REMARK   62  A    between atoms: _136  and  _137
REMARK   63  A    between atoms: _140  and  _142
REMARK   64  A    between atoms: _142  and  _143
REMARK   65  A    between atoms: _142  and  _145
REMARK   66  A    between atoms: _145  and  _146
REMARK   67  A    between atoms: _146  and  _147
REMARK   68  A    between atoms: _150  and  _152
REMARK   69  A    between atoms: _152  and  _153
REMARK   70  A    between atoms: _152  and  _155
REMARK   71  A    between atoms: _155  and  _156
REMARK   72  A    between atoms: _159  and  _161
REMARK   73  A    between atoms: _161  and  _162
REMARK   74  A    between atoms: _161  and  _164
REMARK   75  A    between atoms: _164  and  _165
REMARK   76  A    between atoms: _168  and  _170
REMARK   77  A    between atoms: _170  and  _171
REMARK   78  A    between atoms: _170  and  _173
REMARK   79  A    between atoms: _176  and  _178
REMARK   80  A    between atoms: _178  and  _179
REMARK   81  A    between atoms: _178  and  _181
REMARK   82  A    between atoms: _181  and  _182
REMARK   83  A    between atoms: _185  and  _187
REMARK   84  A    between atoms: _187  and  _188
REMARK   85  A    between atoms: _187  and  _190
REMARK   86  A    between atoms: _190  and  _191
REMARK   87  A    between atoms: _194  and  _196
REMARK   88  A    between atoms: _196  and  _197
REMARK   89  A    between atoms: _199  and  _201
REMARK   90  A    between atoms: _201  and  _202
REMARK   91  A    between atoms: _201  and  _204
REMARK   92  A    between atoms: _204  and  _205
REMARK   93  A    between atoms: _208  and  _210
REMARK   94  A    between atoms: _210  and  _211
REMARK   95  A    between atoms: _213  and  _215
REMARK   96  A    between atoms: _215  and  _216
REMARK   97  A    between atoms: _215  and  _218
REMARK   98  A    between atoms: _218  and  _219
REMARK   99  A    between atoms: _219  and  _220
REMARK  100  A    between atoms: _222  and  _224
REMARK  101  A    between atoms: _224  and  _225
REMARK  102  A    between atoms: _224  and  _227
REMARK  103  A    between atoms: _227  and  _228
REMARK  104  A    between atoms: _231  and  _233
REMARK  105  A    between atoms: _233  and  _234
REMARK  106  A    between atoms: _237  and  _239
REMARK  107  A    between atoms: _239  and  _240
REMARK  108  A    between atoms: _239  and  _242
REMARK  109  A    between atoms: _242  and  _243
REMARK  110  A    between atoms: _246  and  _248
REMARK  111  A    between atoms: _248  and  _249
REMARK  112  A    between atoms: _248  and  _251
REMARK  113  A    between atoms: _251  and  _252
REMARK  114  A    between atoms: _255  and  _257
REMARK  115  A    between atoms: _257  and  _258
REMARK  116  A    between atoms: _257  and  _260
REMARK  117  A    between atoms: _260  and  _261
REMARK  118  A    between atoms: _266  and  _268
REMARK  119  A    between atoms: _268  and  _269
REMARK  120  A    between atoms: _268  and  _271
REMARK  121  A    between atoms: _271  and  _272
REMARK  122  A    between atoms: _277  and  _279
REMARK  123  A    between atoms: _279  and  _280
REMARK  124  A    between atoms: _279  and  _282
REMARK  125  A    between atoms: _282  and  _283
REMARK  126  A    between atoms: _286  and  _288
REMARK  127  A    between atoms: _288  and  _289
REMARK  128  A    between atoms: _291  and  _293
REMARK  129  A    between atoms: _293  and  _294
REMARK  130  A    between atoms: _293  and  _296
REMARK  131  A    between atoms: _296  and  _297
REMARK  132  A    between atoms: _300  and  _302
REMARK  133  A    between atoms: _302  and  _303
REMARK  134  A    between atoms: _302  and  _305
REMARK  135  A    between atoms: _305  and  _306
REMARK  136  A    between atoms: _309  and  _311
REMARK  137  A    between atoms: _311  and  _312
REMARK  138  A    between atoms: _315  and  _317
REMARK  139  A    between atoms: _317  and  _318
REMARK  140  A    between atoms: _320  and  _322
REMARK  141  A    between atoms: _322  and  _323
REMARK  142  A    between atoms: _322  and  _325
REMARK  143  A    between atoms: _325  and  _326
REMARK  144  A    between atoms: _332  and  _334
REMARK  145  A    between atoms: _334  and  _335
REMARK  146  A    between atoms: _337  and  _339
REMARK  147  A    between atoms: _339  and  _340
REMARK  148  A    between atoms: _339  and  _342
REMARK  149  A    between atoms: _345  and  _347
REMARK  150  A    between atoms: _347  and  _348
REMARK  151  A    between atoms: _350  and  _352
REMARK  152  A    between atoms: _352  and  _353
REMARK  153  A    between atoms: _352  and  _355
REMARK  154  A    between atoms: _355  and  _356
REMARK  155  A    between atoms: _362  and  _364
REMARK  156  A    between atoms: _364  and  _365
REMARK  157  A    between atoms: _364  and  _367
REMARK  158  A    between atoms: _367  and  _368
REMARK  159  A    between atoms: _373  and  _374
REMARK  160  A    between atoms: _376  and  _378
REMARK  161  A    between atoms: _378  and  _379
REMARK  162  A    between atoms: _382  and  _384
REMARK  163  A    between atoms: _384  and  _385
REMARK  164  A    between atoms: _384  and  _387
REMARK  165  A    between atoms: _390  and  _392
REMARK  166  A    between atoms: _392  and  _393
REMARK  167  A    between atoms: _392  and  _395
REMARK  168  A    between atoms: _398  and  _400
REMARK  169  A    between atoms: _400  and  _401
REMARK  170  A    between atoms: _400  and  _403
REMARK  171  A    between atoms: _403  and  _404
REMARK  172  A    between atoms: _407  and  _409
REMARK  173  A    between atoms: _409  and  _410
REMARK  174  A    between atoms: _409  and  _412
REMARK  175  A    between atoms: _412  and  _413
REMARK  176  A    between atoms: _416  and  _418
REMARK  177  A    between atoms: _418  and  _419
REMARK  178  A    between atoms: _418  and  _421
REMARK  179  A    between atoms: _421  and  _422
REMARK  180  A    between atoms: _422  and  _423
REMARK  181  A    between atoms: _423  and  _424
REMARK  182  A    between atoms: _424  and  _425
REMARK  183  A    between atoms: _429  and  _431
REMARK  184  A    between atoms: _431  and  _432
REMARK  185  A    between atoms: _431  and  _434
REMARK  186  A    between atoms: _434  and  _435
REMARK  187  A    between atoms: _440  and  _442
REMARK  188  A    between atoms: _442  and  _443
REMARK  189  A    between atoms: _445  and  _447
REMARK  190  A    between atoms: _447  and  _448
REMARK  191  A    between atoms: _447  and  _450
REMARK  192  A    between atoms: _450  and  _451
REMARK  193  A    between atoms: _454  and  _456
REMARK  194  A    between atoms: _456  and  _457
REMARK  195  A    between atoms: _456  and  _459
REMARK  196  A    between atoms: _459  and  _460
REMARK  197  A    between atoms: _460  and  _461
REMARK  198  A    between atoms: _461  and  _462
REMARK  199  A    between atoms: _462  and  _463
REMARK  200  A    between atoms: _467  and  _469
REMARK  201  A    between atoms: _469  and  _470
REMARK  202  A    between atoms: _469  and  _472
REMARK  203  A    between atoms: _475  and  _477
REMARK  204  A    between atoms: _477  and  _478
REMARK  205  A    between atoms: _477  and  _480
REMARK  206  A    between atoms: _480  and  _481
REMARK  207  A    between atoms: _484  and  _486
REMARK  208  A    between atoms: _486  and  _487
REMARK  209  A    between atoms: _486  and  _489
REMARK  210  A    between atoms: _489  and  _490
REMARK  211  A    between atoms: _493  and  _495
REMARK  212  A    between atoms: _495  and  _496
REMARK  213  A    between atoms: _495  and  _498
REMARK  214  A    between atoms: _498  and  _499
REMARK  215  A    between atoms: _502  and  _504
REMARK  216  A    between atoms: _504  and  _505
REMARK  217  A    between atoms: _504  and  _507
REMARK  218  A    between atoms: _507  and  _508
REMARK  219  A    between atoms: _508  and  _509
REMARK  220  A    between atoms: _509  and  _510
REMARK  221  A    between atoms: _510  and  _511
REMARK  222  A    between atoms: _515  and  _517
REMARK  223  A    between atoms: _517  and  _518
REMARK  224  A    between atoms: _517  and  _520
REMARK  225  A    between atoms: _520  and  _521
REMARK  226  A    between atoms: _526  and  _527
REMARK                            x       y       z     vdW  Elec       q    Type
REMARK                         _______ _______ _______ _____ _____    ______ ____
ROOT
ATOM      1  O   HOH     1      30.714   4.441  34.097  0.00  0.00    +0.000 OA
ENDROOT
TORSDOF 0
REMARK  Name = ../refined-set-2016/2uwd/2uwd_pocket.pdb
REMARK  226 active torsions:
REMARK  status: ('A' for Active; 'I' for Inactive)
REMARK    1  A    between atoms: _1  and  _3
REMARK    2  A    between atoms: _3  and  _4
REMARK    3  A    between atoms: _3  and  _6
REMARK    4  A    between atoms: _6  and  _7
REMARK    5  A    between atoms: _13  and  _15
REMARK    6  A    between atoms: _15  and  _16
REMARK    7  A    between atoms: _15  and  _18
REMARK    8  A    between atoms: _18  and  _19
REMARK    9  A    between atoms: _22  and  _24
REMARK   10  A    between atoms: _24  and  _25
REMARK   11  A    between atoms: _24  and  _27
REMARK   12  A    between atoms: _27  and  _28
REMARK   13  A    between atoms: _28  and  _29
REMARK   14  A    between atoms: _32  and  _34
REMARK   15  A    between atoms: _34  and  _35
REMARK   16  A    between atoms: _34  and  _37
REMARK   17  A    between atoms: _37  and  _38
REMARK   18  A    between atoms: _41  and  _43
REMARK   19  A    between atoms: _43  and  _44
REMARK   20  A    between atoms: _43  and  _46
REMARK   21  A    between atoms: _46  and  _47
REMARK   22  A    between atoms: _50  and  _52
REMARK   23  A    between atoms: _52  and  _53
REMARK   24  A    between atoms: _52  and  _55
REMARK   25  A    between atoms: _55  and  _56
REMARK   26  A    between atoms: _58  and  _60
REMARK   27  A    between atoms: _60  and  _61
REMARK   28  A    between atoms: _60  and  _63
REMARK   29  A    between atoms: _63  and  _64
REMARK   30  A    between atoms: _69  and  _71
REMARK   31  A    between atoms: _71  and  _72
REMARK   32  A    between atoms: _71  and  _74
REMARK   33  A    between atoms: _74  and  _75
REMARK   34  A    between atoms: _77  and  _79
REMARK   35  A    between atoms: _79  and  _80
REMARK   36  A    between atoms: _79  and  _82
REMARK   37  A    between atoms: _82  and  _83
REMARK   38  A    between atoms: _85  and  _87
REMARK   39  A    between atoms: _87  and  _88
REMARK   40  A    between atoms: _87  and  _90
REMARK   41  A    between atoms: _90  and  _91
REMARK   42  A    between atoms: _94  and  _96
REMARK   43  A    between atoms: _96  and  _97
REMARK   44  A    between atoms: _100  and  _102
REMARK   45  A    between atoms: _102  and  _103
REMARK   46  A    between atoms: _102  and  _105
REMARK   47  A    between atoms: _105  and  _106
REMARK   48  A    between atoms: _109  and  _111
REMARK   49  A    between atoms: _111  and  _112
REMARK   50  A    between atoms: _111  and  _114
REMARK   51  A    between atoms: _114  and  _115
REMARK   52  A    between atoms: _118  and  _120
REMARK   53  A    between atoms: _120  and  _121
REMARK   54  A    between atoms: _120  and  _123
REMARK   55  A    between atoms: _123  and  _124
REMARK   56  A    between atoms: _124  and  _125
REMARK   57  A    between atoms: _125  and  _126
REMARK   58  A    between atoms: _126  and  _127
REMARK   59  A    between atoms: _131  and  _133
REMARK   60  A    between atoms: _133  and  _134
REMARK   61  A    between atoms: _133  and  _136
REMARK   62  A    between atoms: _136  and  _137
REMARK   63  A    between atoms: _140  and  _142
REMARK   64  A    between atoms: _142  and  _143
REMARK   65  A    between atoms: _142  and  _145
REMARK   66  A    between atoms: _145  and  _146
REMARK   67  A    between atoms: _146  and  _147
REMARK   68  A    between atoms: _150  and  _152
REMARK   69  A    between atoms: _152  and  _153
REMARK   70  A    between atoms: _152  and  _155
REMARK   71  A    between atoms: _155  and  _156
REMARK   72  A    between atoms: _159  and  _161
REMARK   73  A    between atoms: _161  and  _162
REMARK   74  A    between atoms: _161  and  _164
REMARK   75  A    between atoms: _164  and  _165
REMARK   76  A    between atoms: _168  and  _170
REMARK   77  A    between atoms: _170  and  _171
REMARK   78  A    between atoms: _170  and  _173
REMARK   79  A    between atoms: _176  and  _178
REMARK   80  A    between atoms: _178  and  _179
REMARK   81  A    between atoms: _178  and  _181
REMARK   82  A    between atoms: _181  and  _182
REMARK   83  A    between atoms: _185  and  _187
REMARK   84  A    between atoms: _187  and  _188
REMARK   85  A    between atoms: _187  and  _190
REMARK   86  A    between atoms: _190  and  _191
REMARK   87  A    between atoms: _194  and  _196
REMARK   88  A    between atoms: _196  and  _197
REMARK   89  A    between atoms: _199  and  _201
REMARK   90  A    between atoms: _201  and  _202
REMARK   91  A    between atoms: _201  and  _204
REMARK   92  A    between atoms: _204  and  _205
REMARK   93  A    between atoms: _208  and  _210
REMARK   94  A    between atoms: _210  and  _211
REMARK   95  A    between atoms: _213  and  _215
REMARK   96  A    between atoms: _215  and  _216
REMARK   97  A    between atoms: _215  and  _218
REMARK   98  A    between atoms: _218  and  _219
REMARK   99  A    between atoms: _219  and  _220
REMARK  100  A    between atoms: _222  and  _224
REMARK  101  A    between atoms: _224  and  _225
REMARK  102  A    between atoms: _224  and  _227
REMARK  103  A    between atoms: _227  and  _228
REMARK  104  A    between atoms: _231  and  _233
REMARK  105  A    between atoms: _233  and  _234
REMARK  106  A    between atoms: _237  and  _239
REMARK  107  A    between atoms: _239  and  _240
REMARK  108  A    between atoms: _239  and  _242
REMARK  109  A    between atoms: _242  and  _243
REMARK  110  A    between atoms: _246  and  _248
REMARK  111  A    between atoms: _248  and  _249
REMARK  112  A    between atoms: _248  and  _251
REMARK  113  A    between atoms: _251  and  _252
REMARK  114  A    between atoms: _255  and  _257
REMARK  115  A    between atoms: _257  and  _258
REMARK  116  A    between atoms: _257  and  _260
REMARK  117  A    between atoms: _260  and  _261
REMARK  118  A    between atoms: _266  and  _268
REMARK  119  A    between atoms: _268  and  _269
REMARK  120  A    between atoms: _268  and  _271
REMARK  121  A    between atoms: _271  and  _272
REMARK  122  A    between atoms: _277  and  _279
REMARK  123  A    between atoms: _279  and  _280
REMARK  124  A    between atoms: _279  and  _282
REMARK  125  A    between atoms: _282  and  _283
REMARK  126  A    between atoms: _286  and  _288
REMARK  127  A    between atoms: _288  and  _289
REMARK  128  A    between atoms: _291  and  _293
REMARK  129  A    between atoms: _293  and  _294
REMARK  130  A    between atoms: _293  and  _296
REMARK  131  A    between atoms: _296  and  _297
REMARK  132  A    between atoms: _300  and  _302
REMARK  133  A    between atoms: _302  and  _303
REMARK  134  A    between atoms: _302  and  _305
REMARK  135  A    between atoms: _305  and  _306
REMARK  136  A    between atoms: _309  and  _311
REMARK  137  A    between atoms: _311  and  _312
REMARK  138  A    between atoms: _315  and  _317
REMARK  139  A    between atoms: _317  and  _318
REMARK  140  A    between atoms: _320  and  _322
REMARK  141  A    between atoms: _322  and  _323
REMARK  142  A    between atoms: _322  and  _325
REMARK  143  A    between atoms: _325  and  _326
REMARK  144  A    between atoms: _332  and  _334
REMARK  145  A    between atoms: _334  and  _335
REMARK  146  A    between atoms: _337  and  _339
REMARK  147  A    between atoms: _339  and  _340
REMARK  148  A    between atoms: _339  and  _342
REMARK  149  A    between atoms: _345  and  _347
REMARK  150  A    between atoms: _347  and  _348
REMARK  151  A    between atoms: _350  and  _352
REMARK  152  A    between atoms: _352  and  _353
REMARK  153  A    between atoms: _352  and  _355
REMARK  154  A    between atoms: _355  and  _356
REMARK  155  A    between atoms: _362  and  _364
REMARK  156  A    between atoms: _364  and  _365
REMARK  157  A    between atoms: _364  and  _367
REMARK  158  A    between atoms: _367  and  _368
REMARK  159  A    between atoms: _373  and  _374
REMARK  160  A    between atoms: _376  and  _378
REMARK  161  A    between atoms: _378  and  _379
REMARK  162  A    between atoms: _382  and  _384
REMARK  163  A    between atoms: _384  and  _385
REMARK  164  A    between atoms: _384  and  _387
REMARK  165  A    between atoms: _390  and  _392
REMARK  166  A    between atoms: _392  and  _393
REMARK  167  A    between atoms: _392  and  _395
REMARK  168  A    between atoms: _398  and  _400
REMARK  169  A    between atoms: _400  and  _401
REMARK  170  A    between atoms: _400  and  _403
REMARK  171  A    between atoms: _403  and  _404
REMARK  172  A    between atoms: _407  and  _409
REMARK  173  A    between atoms: _409  and  _410
REMARK  174  A    between atoms: _409  and  _412
REMARK  175  A    between atoms: _412  and  _413
REMARK  176  A    between atoms: _416  and  _418
REMARK  177  A    between atoms: _418  and  _419
REMARK  178  A    between atoms: _418  and  _421
REMARK  179  A    between atoms: _421  and  _422
REMARK  180  A    between atoms: _422  and  _423
REMARK  181  A    between atoms: _423  and  _424
REMARK  182  A    between atoms: _424  and  _425
REMARK  183  A    between atoms: _429  and  _431
REMARK  184  A    between atoms: _431  and  _432
REMARK  185  A    between atoms: _431  and  _434
REMARK  186  A    between atoms: _434  and  _435
REMARK  187  A    between atoms: _440  and  _442
REMARK  188  A    between atoms: _442  and  _443
REMARK  189  A    between atoms: _445  and  _447
REMARK  190  A    between atoms: _447  and  _448
REMARK  191  A    between atoms: _447  and  _450
REMARK  192  A    between atoms: _450  and  _451
REMARK  193  A    between atoms: _454  and  _456
REMARK  194  A    between atoms: _456  and  _457
REMARK  195  A    between atoms: _456  and  _459
REMARK  196  A    between atoms: _459  and  _460
REMARK  197  A    between atoms: _460  and  _461
REMARK  198  A    between atoms: _461  and  _462
REMARK  199  A    between atoms: _462  and  _463
REMARK  200  A    between atoms: _467  and  _469
REMARK  201  A    between atoms: _469  and  _470
REMARK  202  A    between atoms: _469  and  _472
REMARK  203  A    between atoms: _475  and  _477
REMARK  204  A    between atoms: _477  and  _478
REMARK  205  A    between atoms: _477  and  _480
REMARK  206  A    between atoms: _480  and  _481
REMARK  207  A    between atoms: _484  and  _486
REMARK  208  A    between atoms: _486  and  _487
REMARK  209  A    between atoms: _486  and  _489
REMARK  210  A    between atoms: _489  and  _490
REMARK  211  A    between atoms: _493  and  _495
REMARK  212  A    between atoms: _495  and  _496
REMARK  213  A    between atoms: _495  and  _498
REMARK  214  A    between atoms: _498  and  _499
REMARK  215  A    between atoms: _502  and  _504
REMARK  216  A    between atoms: _504  and  _505
REMARK  217  A    between atoms: _504  and  _507
REMARK  218  A    between atoms: _507  and  _508
REMARK  219  A    between atoms: _508  and  _509
REMARK  220  A    between atoms: _509  and  _510
REMARK  221  A    between atoms: _510  and  _511
REMARK  222  A    between atoms: _515  and  _517
REMARK  223  A    between atoms: _517  and  _518
REMARK  224  A    between atoms: _517  and  _520
REMARK  225  A    between atoms: _520  and  _521
REMARK  226  A    between atoms: _526  and  _527
REMARK                            x       y       z     vdW  Elec       q    Type
REMARK                         _______ _______ _______ _____ _____    ______ ____
ROOT
ATOM      1  O   HOH     1      35.251  -0.384  19.266  0.00  0.00    +0.000 OA
ENDROOT
TORSDOF 0
REMARK  Name = ../refined-set-2016/2uwd/2uwd_pocket.pdb
REMARK  226 active torsions:
REMARK  status: ('A' for Active; 'I' for Inactive)
REMARK    1  A    between atoms: _1  and  _3
REMARK    2  A    between atoms: _3  and  _4
REMARK    3  A    between atoms: _3  and  _6
REMARK    4  A    between atoms: _6  and  _7
REMARK    5  A    between atoms: _13  and  _15
REMARK    6  A    between atoms: _15  and  _16
REMARK    7  A    between atoms: _15  and  _18
REMARK    8  A    between atoms: _18  and  _19
REMARK    9  A    between atoms: _22  and  _24
REMARK   10  A    between atoms: _24  and  _25
REMARK   11  A    between atoms: _24  and  _27
REMARK   12  A    between atoms: _27  and  _28
REMARK   13  A    between atoms: _28  and  _29
REMARK   14  A    between atoms: _32  and  _34
REMARK   15  A    between atoms: _34  and  _35
REMARK   16  A    between atoms: _34  and  _37
REMARK   17  A    between atoms: _37  and  _38
REMARK   18  A    between atoms: _41  and  _43
REMARK   19  A    between atoms: _43  and  _44
REMARK   20  A    between atoms: _43  and  _46
REMARK   21  A    between atoms: _46  and  _47
REMARK   22  A    between atoms: _50  and  _52
REMARK   23  A    between atoms: _52  and  _53
REMARK   24  A    between atoms: _52  and  _55
REMARK   25  A    between atoms: _55  and  _56
REMARK   26  A    between atoms: _58  and  _60
REMARK   27  A    between atoms: _60  and  _61
REMARK   28  A    between atoms: _60  and  _63
REMARK   29  A    between atoms: _63  and  _64
REMARK   30  A    between atoms: _69  and  _71
REMARK   31  A    between atoms: _71  and  _72
REMARK   32  A    between atoms: _71  and  _74
REMARK   33  A    between atoms: _74  and  _75
REMARK   34  A    between atoms: _77  and  _79
REMARK   35  A    between atoms: _79  and  _80
REMARK   36  A    between atoms: _79  and  _82
REMARK   37  A    between atoms: _82  and  _83
REMARK   38  A    between atoms: _85  and  _87
REMARK   39  A    between atoms: _87  and  _88
REMARK   40  A    between atoms: _87  and  _90
REMARK   41  A    between atoms: _90  and  _91
REMARK   42  A    between atoms: _94  and  _96
REMARK   43  A    between atoms: _96  and  _97
REMARK   44  A    between atoms: _100  and  _102
REMARK   45  A    between atoms: _102  and  _103
REMARK   46  A    between atoms: _102  and  _105
REMARK   47  A    between atoms: _105  and  _106
REMARK   48  A    between atoms: _109  and  _111
REMARK   49  A    between atoms: _111  and  _112
REMARK   50  A    between atoms: _111  and  _114
REMARK   51  A    between atoms: _114  and  _115
REMARK   52  A    between atoms: _118  and  _120
REMARK   53  A    between atoms: _120  and  _121
REMARK   54  A    between atoms: _120  and  _123
REMARK   55  A    between atoms: _123  and  _124
REMARK   56  A    between atoms: _124  and  _125
REMARK   57  A    between atoms: _125  and  _126
REMARK   58  A    between atoms: _126  and  _127
REMARK   59  A    between atoms: _131  and  _133
REMARK   60  A    between atoms: _133  and  _134
REMARK   61  A    between atoms: _133  and  _136
REMARK   62  A    between atoms: _136  and  _137
REMARK   63  A    between atoms: _140  and  _142
REMARK   64  A    between atoms: _142  and  _143
REMARK   65  A    between atoms: _142  and  _145
REMARK   66  A    between atoms: _145  and  _146
REMARK   67  A    between atoms: _146  and  _147
REMARK   68  A    between atoms: _150  and  _152
REMARK   69  A    between atoms: _152  and  _153
REMARK   70  A    between atoms: _152  and  _155
REMARK   71  A    between atoms: _155  and  _156
REMARK   72  A    between atoms: _159  and  _161
REMARK   73  A    between atoms: _161  and  _162
REMARK   74  A    between atoms: _161  and  _164
REMARK   75  A    between atoms: _164  and  _165
REMARK   76  A    between atoms: _168  and  _170
REMARK   77  A    between atoms: _170  and  _171
REMARK   78  A    between atoms: _170  and  _173
REMARK   79  A    between atoms: _176  and  _178
REMARK   80  A    between atoms: _178  and  _179
REMARK   81  A    between atoms: _178  and  _181
REMARK   82  A    between atoms: _181  and  _182
REMARK   83  A    between atoms: _185  and  _187
REMARK   84  A    between atoms: _187  and  _188
REMARK   85  A    between atoms: _187  and  _190
REMARK   86  A    between atoms: _190  and  _191
REMARK   87  A    between atoms: _194  and  _196
REMARK   88  A    between atoms: _196  and  _197
REMARK   89  A    between atoms: _199  and  _201
REMARK   90  A    between atoms: _201  and  _202
REMARK   91  A    between atoms: _201  and  _204
REMARK   92  A    between atoms: _204  and  _205
REMARK   93  A    between atoms: _208  and  _210
REMARK   94  A    between atoms: _210  and  _211
REMARK   95  A    between atoms: _213  and  _215
REMARK   96  A    between atoms: _215  and  _216
REMARK   97  A    between atoms: _215  and  _218
REMARK   98  A    between atoms: _218  and  _219
REMARK   99  A    between atoms: _219  and  _220
REMARK  100  A    between atoms: _222  and  _224
REMARK  101  A    between atoms: _224  and  _225
REMARK  102  A    between atoms: _224  and  _227
REMARK  103  A    between atoms: _227  and  _228
REMARK  104  A    between atoms: _231  and  _233
REMARK  105  A    between atoms: _233  and  _234
REMARK  106  A    between atoms: _237  and  _239
REMARK  107  A    between atoms: _239  and  _240
REMARK  108  A    between atoms: _239  and  _242
REMARK  109  A    between atoms: _242  and  _243
REMARK  110  A    between atoms: _246  and  _248
REMARK  111  A    between atoms: _248  and  _249
REMARK  112  A    between atoms: _248  and  _251
REMARK  113  A    between atoms: _251  and  _252
REMARK  114  A    between atoms: _255  and  _257
REMARK  115  A    between atoms: _257  and  _258
REMARK  116  A    between atoms: _257  and  _260
REMARK  117  A    between atoms: _260  and  _261
REMARK  118  A    between atoms: _266  and  _268
REMARK  119  A    between atoms: _268  and  _269
REMARK  120  A    between atoms: _268  and  _271
REMARK  121  A    between atoms: _271  and  _272
REMARK  122  A    between atoms: _277  and  _279
REMARK  123  A    between atoms: _279  and  _280
REMARK  124  A    between atoms: _279  and  _282
REMARK  125  A    between atoms: _282  and  _283
REMARK  126  A    between atoms: _286  and  _288
REMARK  127  A    between atoms: _288  and  _289
REMARK  128  A    between atoms: _291  and  _293
REMARK  129  A    between atoms: _293  and  _294
REMARK  130  A    between atoms: _293  and  _296
REMARK  131  A    between atoms: _296  and  _297
REMARK  132  A    between atoms: _300  and  _302
REMARK  133  A    between atoms: _302  and  _303
REMARK  134  A    between atoms: _302  and  _305
REMARK  135  A    between atoms: _305  and  _306
REMARK  136  A    between atoms: _309  and  _311
REMARK  137  A    between atoms: _311  and  _312
REMARK  138  A    between atoms: _315  and  _317
REMARK  139  A    between atoms: _317  and  _318
REMARK  140  A    between atoms: _320  and  _322
REMARK  141  A    between atoms: _322  and  _323
REMARK  142  A    between atoms: _322  and  _325
REMARK  143  A    between atoms: _325  and  _326
REMARK  144  A    between atoms: _332  and  _334
REMARK  145  A    between atoms: _334  and  _335
REMARK  146  A    between atoms: _337  and  _339
REMARK  147  A    between atoms: _339  and  _340
REMARK  148  A    between atoms: _339  and  _342
REMARK  149  A    between atoms: _345  and  _347
REMARK  150  A    between atoms: _347  and  _348
REMARK  151  A    between atoms: _350  and  _352
REMARK  152  A    between atoms: _352  and  _353
REMARK  153  A    between atoms: _352  and  _355
REMARK  154  A    between atoms: _355  and  _356
REMARK  155  A    between atoms: _362  and  _364
REMARK  156  A    between atoms: _364  and  _365
REMARK  157  A    between atoms: _364  and  _367
REMARK  158  A    between atoms: _367  and  _368
REMARK  159  A    between atoms: _373  and  _374
REMARK  160  A    between atoms: _376  and  _378
REMARK  161  A    between atoms: _378  and  _379
REMARK  162  A    between atoms: _382  and  _384
REMARK  163  A    between atoms: _384  and  _385
REMARK  164  A    between atoms: _384  and  _387
REMARK  165  A    between atoms: _390  and  _392
REMARK  166  A    between atoms: _392  and  _393
REMARK  167  A    between atoms: _392  and  _395
REMARK  168  A    between atoms: _398  and  _400
REMARK  169  A    between atoms: _400  and  _401
REMARK  170  A    between atoms: _400  and  _403
REMARK  171  A    between atoms: _403  and  _404
REMARK  172  A    between atoms: _407  and  _409
REMARK  173  A    between atoms: _409  and  _410
REMARK  174  A    between atoms: _409  and  _412
REMARK  175  A    between atoms: _412  and  _413
REMARK  176  A    between atoms: _416  and  _418
REMARK  177  A    between atoms: _418  and  _419
REMARK  178  A    between atoms: _418  and  _421
REMARK  179  A    between atoms: _421  and  _422
REMARK  180  A    between atoms: _422  and  _423
REMARK  181  A    between atoms: _423  and  _424
REMARK  182  A    between atoms: _424  and  _425
REMARK  183  A    between atoms: _429  and  _431
REMARK  184  A    between atoms: _431  and  _432
REMARK  185  A    between atoms: _431  and  _434
REMARK  186  A    between atoms: _434  and  _435
REMARK  187  A    between atoms: _440  and  _442
REMARK  188  A    between atoms: _442  and  _443
REMARK  189  A    between atoms: _445  and  _447
REMARK  190  A    between atoms: _447  and  _448
REMARK  191  A    between atoms: _447  and  _450
REMARK  192  A    between atoms: _450  and  _451
REMARK  193  A    between atoms: _454  and  _456
REMARK  194  A    between atoms: _456  and  _457
REMARK  195  A    between atoms: _456  and  _459
REMARK  196  A    between atoms: _459  and  _460
REMARK  197  A    between atoms: _460  and  _461
REMARK  198  A    between atoms: _461  and  _462
REMARK  199  A    between atoms: _462  and  _463
REMARK  200  A    between atoms: _467  and  _469
REMARK  201  A    between atoms: _469  and  _470
REMARK  202  A    between atoms: _469  and  _472
REMARK  203  A    between atoms: _475  and  _477
REMARK  204  A    between atoms: _477  and  _478
REMARK  205  A    between atoms: _477  and  _480
REMARK  206  A    between atoms: _480  and  _481
REMARK  207  A    between atoms: _484  and  _486
REMARK  208  A    between atoms: _486  and  _487
REMARK  209  A    between atoms: _486  and  _489
REMARK  210  A    between atoms: _489  and  _490
REMARK  211  A    between atoms: _493  and  _495
REMARK  212  A    between atoms: _495  and  _496
REMARK  213  A    between atoms: _495  and  _498
REMARK  214  A    between atoms: _498  and  _499
REMARK  215  A    between atoms: _502  and  _504
REMARK  216  A    between atoms: _504  and  _505
REMARK  217  A    between atoms: _504  and  _507
REMARK  218  A    between atoms: _507  and  _508
REMARK  219  A    between atoms: _508  and  _509
REMARK  220  A    between atoms: _509  and  _510
REMARK  221  A    between atoms: _510  and  _511
REMARK  222  A    between atoms: _515  and  _517
REMARK  223  A    between atoms: _517  and  _518
REMARK  224  A    between atoms: _517  and  _520
REMARK  225  A    between atoms: _520  and  _521
REMARK  226  A    between atoms: _526  and  _527
REMARK                            x       y       z     vdW  Elec       q    Type
REMARK                         _______ _______ _______ _____ _____    ______ ____
ROOT
ATOM      1  O   HOH     1      34.070   4.158  16.950  0.00  0.00    +0.000 OA
ENDROOT
TORSDOF 0
REMARK  Name = ../refined-set-2016/2uwd/2uwd_pocket.pdb
REMARK  226 active torsions:
REMARK  status: ('A' for Active; 'I' for Inactive)
REMARK    1  A    between atoms: _1  and  _3
REMARK    2  A    between atoms: _3  and  _4
REMARK    3  A    between atoms: _3  and  _6
REMARK    4  A    between atoms: _6  and  _7
REMARK    5  A    between atoms: _13  and  _15
REMARK    6  A    between atoms: _15  and  _16
REMARK    7  A    between atoms: _15  and  _18
REMARK    8  A    between atoms: _18  and  _19
REMARK    9  A    between atoms: _22  and  _24
REMARK   10  A    between atoms: _24  and  _25
REMARK   11  A    between atoms: _24  and  _27
REMARK   12  A    between atoms: _27  and  _28
REMARK   13  A    between atoms: _28  and  _29
REMARK   14  A    between atoms: _32  and  _34
REMARK   15  A    between atoms: _34  and  _35
REMARK   16  A    between atoms: _34  and  _37
REMARK   17  A    between atoms: _37  and  _38
REMARK   18  A    between atoms: _41  and  _43
REMARK   19  A    between atoms: _43  and  _44
REMARK   20  A    between atoms: _43  and  _46
REMARK   21  A    between atoms: _46  and  _47
REMARK   22  A    between atoms: _50  and  _52
REMARK   23  A    between atoms: _52  and  _53
REMARK   24  A    between atoms: _52  and  _55
REMARK   25  A    between atoms: _55  and  _56
REMARK   26  A    between atoms: _58  and  _60
REMARK   27  A    between atoms: _60  and  _61
REMARK   28  A    between atoms: _60  and  _63
REMARK   29  A    between atoms: _63  and  _64
REMARK   30  A    between atoms: _69  and  _71
REMARK   31  A    between atoms: _71  and  _72
REMARK   32  A    between atoms: _71  and  _74
REMARK   33  A    between atoms: _74  and  _75
REMARK   34  A    between atoms: _77  and  _79
REMARK   35  A    between atoms: _79  and  _80
REMARK   36  A    between atoms: _79  and  _82
REMARK   37  A    between atoms: _82  and  _83
REMARK   38  A    between atoms: _85  and  _87
REMARK   39  A    between atoms: _87  and  _88
REMARK   40  A    between atoms: _87  and  _90
REMARK   41  A    between atoms: _90  and  _91
REMARK   42  A    between atoms: _94  and  _96
REMARK   43  A    between atoms: _96  and  _97
REMARK   44  A    between atoms: _100  and  _102
REMARK   45  A    between atoms: _102  and  _103
REMARK   46  A    between atoms: _102  and  _105
REMARK   47  A    between atoms: _105  and  _106
REMARK   48  A    between atoms: _109  and  _111
REMARK   49  A    between atoms: _111  and  _112
REMARK   50  A    between atoms: _111  and  _114
REMARK   51  A    between atoms: _114  and  _115
REMARK   52  A    between atoms: _118  and  _120
REMARK   53  A    between atoms: _120  and  _121
REMARK   54  A    between atoms: _120  and  _123
REMARK   55  A    between atoms: _123  and  _124
REMARK   56  A    between atoms: _124  and  _125
REMARK   57  A    between atoms: _125  and  _126
REMARK   58  A    between atoms: _126  and  _127
REMARK   59  A    between atoms: _131  and  _133
REMARK   60  A    between atoms: _133  and  _134
REMARK   61  A    between atoms: _133  and  _136
REMARK   62  A    between atoms: _136  and  _137
REMARK   63  A    between atoms: _140  and  _142
REMARK   64  A    between atoms: _142  and  _143
REMARK   65  A    between atoms: _142  and  _145
REMARK   66  A    between atoms: _145  and  _146
REMARK   67  A    between atoms: _146  and  _147
REMARK   68  A    between atoms: _150  and  _152
REMARK   69  A    between atoms: _152  and  _153
REMARK   70  A    between atoms: _152  and  _155
REMARK   71  A    between atoms: _155  and  _156
REMARK   72  A    between atoms: _159  and  _161
REMARK   73  A    between atoms: _161  and  _162
REMARK   74  A    between atoms: _161  and  _164
REMARK   75  A    between atoms: _164  and  _165
REMARK   76  A    between atoms: _168  and  _170
REMARK   77  A    between atoms: _170  and  _171
REMARK   78  A    between atoms: _170  and  _173
REMARK   79  A    between atoms: _176  and  _178
REMARK   80  A    between atoms: _178  and  _179
REMARK   81  A    between atoms: _178  and  _181
REMARK   82  A    between atoms: _181  and  _182
REMARK   83  A    between atoms: _185  and  _187
REMARK   84  A    between atoms: _187  and  _188
REMARK   85  A    between atoms: _187  and  _190
REMARK   86  A    between atoms: _190  and  _191
REMARK   87  A    between atoms: _194  and  _196
REMARK   88  A    between atoms: _196  and  _197
REMARK   89  A    between atoms: _199  and  _201
REMARK   90  A    between atoms: _201  and  _202
REMARK   91  A    between atoms: _201  and  _204
REMARK   92  A    between atoms: _204  and  _205
REMARK   93  A    between atoms: _208  and  _210
REMARK   94  A    between atoms: _210  and  _211
REMARK   95  A    between atoms: _213  and  _215
REMARK   96  A    between atoms: _215  and  _216
REMARK   97  A    between atoms: _215  and  _218
REMARK   98  A    between atoms: _218  and  _219
REMARK   99  A    between atoms: _219  and  _220
REMARK  100  A    between atoms: _222  and  _224
REMARK  101  A    between atoms: _224  and  _225
REMARK  102  A    between atoms: _224  and  _227
REMARK  103  A    between atoms: _227  and  _228
REMARK  104  A    between atoms: _231  and  _233
REMARK  105  A    between atoms: _233  and  _234
REMARK  106  A    between atoms: _237  and  _239
REMARK  107  A    between atoms: _239  and  _240
REMARK  108  A    between atoms: _239  and  _242
REMARK  109  A    between atoms: _242  and  _243
REMARK  110  A    between atoms: _246  and  _248
REMARK  111  A    between atoms: _248  and  _249
REMARK  112  A    between atoms: _248  and  _251
REMARK  113  A    between atoms: _251  and  _252
REMARK  114  A    between atoms: _255  and  _257
REMARK  115  A    between atoms: _257  and  _258
REMARK  116  A    between atoms: _257  and  _260
REMARK  117  A    between atoms: _260  and  _261
REMARK  118  A    between atoms: _266  and  _268
REMARK  119  A    between atoms: _268  and  _269
REMARK  120  A    between atoms: _268  and  _271
REMARK  121  A    between atoms: _271  and  _272
REMARK  122  A    between atoms: _277  and  _279
REMARK  123  A    between atoms: _279  and  _280
REMARK  124  A    between atoms: _279  and  _282
REMARK  125  A    between atoms: _282  and  _283
REMARK  126  A    between atoms: _286  and  _288
REMARK  127  A    between atoms: _288  and  _289
REMARK  128  A    between atoms: _291  and  _293
REMARK  129  A    between atoms: _293  and  _294
REMARK  130  A    between atoms: _293  and  _296
REMARK  131  A    between atoms: _296  and  _297
REMARK  132  A    between atoms: _300  and  _302
REMARK  133  A    between atoms: _302  and  _303
REMARK  134  A    between atoms: _302  and  _305
REMARK  135  A    between atoms: _305  and  _306
REMARK  136  A    between atoms: _309  and  _311
REMARK  137  A    between atoms: _311  and  _312
REMARK  138  A    between atoms: _315  and  _317
REMARK  139  A    between atoms: _317  and  _318
REMARK  140  A    between atoms: _320  and  _322
REMARK  141  A    between atoms: _322  and  _323
REMARK  142  A    between atoms: _322  and  _325
REMARK  143  A    between atoms: _325  and  _326
REMARK  144  A    between atoms: _332  and  _334
REMARK  145  A    between atoms: _334  and  _335
REMARK  146  A    between atoms: _337  and  _339
REMARK  147  A    between atoms: _339  and  _340
REMARK  148  A    between atoms: _339  and  _342
REMARK  149  A    between atoms: _345  and  _347
REMARK  150  A    between atoms: _347  and  _348
REMARK  151  A    between atoms: _350  and  _352
REMARK  152  A    between atoms: _352  and  _353
REMARK  153  A    between atoms: _352  and  _355
REMARK  154  A    between atoms: _355  and  _356
REMARK  155  A    between atoms: _362  and  _364
REMARK  156  A    between atoms: _364  and  _365
REMARK  157  A    between atoms: _364  and  _367
REMARK  158  A    between atoms: _367  and  _368
REMARK  159  A    between atoms: _373  and  _374
REMARK  160  A    between atoms: _376  and  _378
REMARK  161  A    between atoms: _378  and  _379
REMARK  162  A    between atoms: _382  and  _384
REMARK  163  A    between atoms: _384  and  _385
REMARK  164  A    between atoms: _384  and  _387
REMARK  165  A    between atoms: _390  and  _392
REMARK  166  A    between atoms: _392  and  _393
REMARK  167  A    between atoms: _392  and  _395
REMARK  168  A    between atoms: _398  and  _400
REMARK  169  A    between atoms: _400  and  _401
REMARK  170  A    between atoms: _400  and  _403
REMARK  171  A    between atoms: _403  and  _404
REMARK  172  A    between atoms: _407  and  _409
REMARK  173  A    between atoms: _409  and  _410
REMARK  174  A    between atoms: _409  and  _412
REMARK  175  A    between atoms: _412  and  _413
REMARK  176  A    between atoms: _416  and  _418
REMARK  177  A    between atoms: _418  and  _419
REMARK  178  A    between atoms: _418  and  _421
REMARK  179  A    between atoms: _421  and  _422
REMARK  180  A    between atoms: _422  and  _423
REMARK  181  A    between atoms: _423  and  _424
REMARK  182  A    between atoms: _424  and  _425
REMARK  183  A    between atoms: _429  and  _431
REMARK  184  A    between atoms: _431  and  _432
REMARK  185  A    between atoms: _431  and  _434
REMARK  186  A    between atoms: _434  and  _435
REMARK  187  A    between atoms: _440  and  _442
REMARK  188  A    between atoms: _442  and  _443
REMARK  189  A    between atoms: _445  and  _447
REMARK  190  A    between atoms: _447  and  _448
REMARK  191  A    between atoms: _447  and  _450
REMARK  192  A    between atoms: _450  and  _451
REMARK  193  A    between atoms: _454  and  _456
REMARK  194  A    between atoms: _456  and  _457
REMARK  195  A    between atoms: _456  and  _459
REMARK  196  A    between atoms: _459  and  _460
REMARK  197  A    between atoms: _460  and  _461
REMARK  198  A    between atoms: _461  and  _462
REMARK  199  A    between atoms: _462  and  _463
REMARK  200  A    between atoms: _467  and  _469
REMARK  201  A    between atoms: _469  and  _470
REMARK  202  A    between atoms: _469  and  _472
REMARK  203  A    between atoms: _475  and  _477
REMARK  204  A    between atoms: _477  and  _478
REMARK  205  A    between atoms: _477  and  _480
REMARK  206  A    between atoms: _480  and  _481
REMARK  207  A    between atoms: _484  and  _486
REMARK  208  A    between atoms: _486  and  _487
REMARK  209  A    between atoms: _486  and  _489
REMARK  210  A    between atoms: _489  and  _490
REMARK  211  A    between atoms: _493  and  _495
REMARK  212  A    between atoms: _495  and  _496
REMARK  213  A    between atoms: _495  and  _498
REMARK  214  A    between atoms: _498  and  _499
REMARK  215  A    between atoms: _502  and  _504
REMARK  216  A    between atoms: _504  and  _505
REMARK  217  A    between atoms: _504  and  _507
REMARK  218  A    between atoms: _507  and  _508
REMARK  219  A    between atoms: _508  and  _509
REMARK  220  A    between atoms: _509  and  _510
REMARK  221  A    between atoms: _510  and  _511
REMARK  222  A    between atoms: _515  and  _517
REMARK  223  A    between atoms: _517  and  _518
REMARK  224  A    between atoms: _517  and  _520
REMARK  225  A    between atoms: _520  and  _521
REMARK  226  A    between atoms: _526  and  _527
REMARK                            x       y       z     vdW  Elec       q    Type
REMARK                         _______ _______ _______ _____ _____    ______ ____
ROOT
ATOM      1  O   HOH     1      36.670   1.815  19.525  0.00  0.00    +0.000 OA
ENDROOT
TORSDOF 0
REMARK  Name = ../refined-set-2016/2uwd/2uwd_pocket.pdb
REMARK  226 active torsions:
REMARK  status: ('A' for Active; 'I' for Inactive)
REMARK    1  A    between atoms: _1  and  _3
REMARK    2  A    between atoms: _3  and  _4
REMARK    3  A    between atoms: _3  and  _6
REMARK    4  A    between atoms: _6  and  _7
REMARK    5  A    between atoms: _13  and  _15
REMARK    6  A    between atoms: _15  and  _16
REMARK    7  A    between atoms: _15  and  _18
REMARK    8  A    between atoms: _18  and  _19
REMARK    9  A    between atoms: _22  and  _24
REMARK   10  A    between atoms: _24  and  _25
REMARK   11  A    between atoms: _24  and  _27
REMARK   12  A    between atoms: _27  and  _28
REMARK   13  A    between atoms: _28  and  _29
REMARK   14  A    between atoms: _32  and  _34
REMARK   15  A    between atoms: _34  and  _35
REMARK   16  A    between atoms: _34  and  _37
REMARK   17  A    between atoms: _37  and  _38
REMARK   18  A    between atoms: _41  and  _43
REMARK   19  A    between atoms: _43  and  _44
REMARK   20  A    between atoms: _43  and  _46
REMARK   21  A    between atoms: _46  and  _47
REMARK   22  A    between atoms: _50  and  _52
REMARK   23  A    between atoms: _52  and  _53
REMARK   24  A    between atoms: _52  and  _55
REMARK   25  A    between atoms: _55  and  _56
REMARK   26  A    between atoms: _58  and  _60
REMARK   27  A    between atoms: _60  and  _61
REMARK   28  A    between atoms: _60  and  _63
REMARK   29  A    between atoms: _63  and  _64
REMARK   30  A    between atoms: _69  and  _71
REMARK   31  A    between atoms: _71  and  _72
REMARK   32  A    between atoms: _71  and  _74
REMARK   33  A    between atoms: _74  and  _75
REMARK   34  A    between atoms: _77  and  _79
REMARK   35  A    between atoms: _79  and  _80
REMARK   36  A    between atoms: _79  and  _82
REMARK   37  A    between atoms: _82  and  _83
REMARK   38  A    between atoms: _85  and  _87
REMARK   39  A    between atoms: _87  and  _88
REMARK   40  A    between atoms: _87  and  _90
REMARK   41  A    between atoms: _90  and  _91
REMARK   42  A    between atoms: _94  and  _96
REMARK   43  A    between atoms: _96  and  _97
REMARK   44  A    between atoms: _100  and  _102
REMARK   45  A    between atoms: _102  and  _103
REMARK   46  A    between atoms: _102  and  _105
REMARK   47  A    between atoms: _105  and  _106
REMARK   48  A    between atoms: _109  and  _111
REMARK   49  A    between atoms: _111  and  _112
REMARK   50  A    between atoms: _111  and  _114
REMARK   51  A    between atoms: _114  and  _115
REMARK   52  A    between atoms: _118  and  _120
REMARK   53  A    between atoms: _120  and  _121
REMARK   54  A    between atoms: _120  and  _123
REMARK   55  A    between atoms: _123  and  _124
REMARK   56  A    between atoms: _124  and  _125
REMARK   57  A    between atoms: _125  and  _126
REMARK   58  A    between atoms: _126  and  _127
REMARK   59  A    between atoms: _131  and  _133
REMARK   60  A    between atoms: _133  and  _134
REMARK   61  A    between atoms: _133  and  _136
REMARK   62  A    between atoms: _136  and  _137
REMARK   63  A    between atoms: _140  and  _142
REMARK   64  A    between atoms: _142  and  _143
REMARK   65  A    between atoms: _142  and  _145
REMARK   66  A    between atoms: _145  and  _146
REMARK   67  A    between atoms: _146  and  _147
REMARK   68  A    between atoms: _150  and  _152
REMARK   69  A    between atoms: _152  and  _153
REMARK   70  A    between atoms: _152  and  _155
REMARK   71  A    between atoms: _155  and  _156
REMARK   72  A    between atoms: _159  and  _161
REMARK   73  A    between atoms: _161  and  _162
REMARK   74  A    between atoms: _161  and  _164
REMARK   75  A    between atoms: _164  and  _165
REMARK   76  A    between atoms: _168  and  _170
REMARK   77  A    between atoms: _170  and  _171
REMARK   78  A    between atoms: _170  and  _173
REMARK   79  A    between atoms: _176  and  _178
REMARK   80  A    between atoms: _178  and  _179
REMARK   81  A    between atoms: _178  and  _181
REMARK   82  A    between atoms: _181  and  _182
REMARK   83  A    between atoms: _185  and  _187
REMARK   84  A    between atoms: _187  and  _188
REMARK   85  A    between atoms: _187  and  _190
REMARK   86  A    between atoms: _190  and  _191
REMARK   87  A    between atoms: _194  and  _196
REMARK   88  A    between atoms: _196  and  _197
REMARK   89  A    between atoms: _199  and  _201
REMARK   90  A    between atoms: _201  and  _202
REMARK   91  A    between atoms: _201  and  _204
REMARK   92  A    between atoms: _204  and  _205
REMARK   93  A    between atoms: _208  and  _210
REMARK   94  A    between atoms: _210  and  _211
REMARK   95  A    between atoms: _213  and  _215
REMARK   96  A    between atoms: _215  and  _216
REMARK   97  A    between atoms: _215  and  _218
REMARK   98  A    between atoms: _218  and  _219
REMARK   99  A    between atoms: _219  and  _220
REMARK  100  A    between atoms: _222  and  _224
REMARK  101  A    between atoms: _224  and  _225
REMARK  102  A    between atoms: _224  and  _227
REMARK  103  A    between atoms: _227  and  _228
REMARK  104  A    between atoms: _231  and  _233
REMARK  105  A    between atoms: _233  and  _234
REMARK  106  A    between atoms: _237  and  _239
REMARK  107  A    between atoms: _239  and  _240
REMARK  108  A    between atoms: _239  and  _242
REMARK  109  A    between atoms: _242  and  _243
REMARK  110  A    between atoms: _246  and  _248
REMARK  111  A    between atoms: _248  and  _249
REMARK  112  A    between atoms: _248  and  _251
REMARK  113  A    between atoms: _251  and  _252
REMARK  114  A    between atoms: _255  and  _257
REMARK  115  A    between atoms: _257  and  _258
REMARK  116  A    between atoms: _257  and  _260
REMARK  117  A    between atoms: _260  and  _261
REMARK  118  A    between atoms: _266  and  _268
REMARK  119  A    between atoms: _268  and  _269
REMARK  120  A    between atoms: _268  and  _271
REMARK  121  A    between atoms: _271  and  _272
REMARK  122  A    between atoms: _277  and  _279
REMARK  123  A    between atoms: _279  and  _280
REMARK  124  A    between atoms: _279  and  _282
REMARK  125  A    between atoms: _282  and  _283
REMARK  126  A    between atoms: _286  and  _288
REMARK  127  A    between atoms: _288  and  _289
REMARK  128  A    between atoms: _291  and  _293
REMARK  129  A    between atoms: _293  and  _294
REMARK  130  A    between atoms: _293  and  _296
REMARK  131  A    between atoms: _296  and  _297
REMARK  132  A    between atoms: _300  and  _302
REMARK  133  A    between atoms: _302  and  _303
REMARK  134  A    between atoms: _302  and  _305
REMARK  135  A    between atoms: _305  and  _306
REMARK  136  A    between atoms: _309  and  _311
REMARK  137  A    between atoms: _311  and  _312
REMARK  138  A    between atoms: _315  and  _317
REMARK  139  A    between atoms: _317  and  _318
REMARK  140  A    between atoms: _320  and  _322
REMARK  141  A    between atoms: _322  and  _323
REMARK  142  A    between atoms: _322  and  _325
REMARK  143  A    between atoms: _325  and  _326
REMARK  144  A    between atoms: _332  and  _334
REMARK  145  A    between atoms: _334  and  _335
REMARK  146  A    between atoms: _337  and  _339
REMARK  147  A    between atoms: _339  and  _340
REMARK  148  A    between atoms: _339  and  _342
REMARK  149  A    between atoms: _345  and  _347
REMARK  150  A    between atoms: _347  and  _348
REMARK  151  A    between atoms: _350  and  _352
REMARK  152  A    between atoms: _352  and  _353
REMARK  153  A    between atoms: _352  and  _355
REMARK  154  A    between atoms: _355  and  _356
REMARK  155  A    between atoms: _362  and  _364
REMARK  156  A    between atoms: _364  and  _365
REMARK  157  A    between atoms: _364  and  _367
REMARK  158  A    between atoms: _367  and  _368
REMARK  159  A    between atoms: _373  and  _374
REMARK  160  A    between atoms: _376  and  _378
REMARK  161  A    between atoms: _378  and  _379
REMARK  162  A    between atoms: _382  and  _384
REMARK  163  A    between atoms: _384  and  _385
REMARK  164  A    between atoms: _384  and  _387
REMARK  165  A    between atoms: _390  and  _392
REMARK  166  A    between atoms: _392  and  _393
REMARK  167  A    between atoms: _392  and  _395
REMARK  168  A    between atoms: _398  and  _400
REMARK  169  A    between atoms: _400  and  _401
REMARK  170  A    between atoms: _400  and  _403
REMARK  171  A    between atoms: _403  and  _404
REMARK  172  A    between atoms: _407  and  _409
REMARK  173  A    between atoms: _409  and  _410
REMARK  174  A    between atoms: _409  and  _412
REMARK  175  A    between atoms: _412  and  _413
REMARK  176  A    between atoms: _416  and  _418
REMARK  177  A    between atoms: _418  and  _419
REMARK  178  A    between atoms: _418  and  _421
REMARK  179  A    between atoms: _421  and  _422
REMARK  180  A    between atoms: _422  and  _423
REMARK  181  A    between atoms: _423  and  _424
REMARK  182  A    between atoms: _424  and  _425
REMARK  183  A    between atoms: _429  and  _431
REMARK  184  A    between atoms: _431  and  _432
REMARK  185  A    between atoms: _431  and  _434
REMARK  186  A    between atoms: _434  and  _435
REMARK  187  A    between atoms: _440  and  _442
REMARK  188  A    between atoms: _442  and  _443
REMARK  189  A    between atoms: _445  and  _447
REMARK  190  A    between atoms: _447  and  _448
REMARK  191  A    between atoms: _447  and  _450
REMARK  192  A    between atoms: _450  and  _451
REMARK  193  A    between atoms: _454  and  _456
REMARK  194  A    between atoms: _456  and  _457
REMARK  195  A    between atoms: _456  and  _459
REMARK  196  A    between atoms: _459  and  _460
REMARK  197  A    between atoms: _460  and  _461
REMARK  198  A    between atoms: _461  and  _462
REMARK  199  A    between atoms: _462  and  _463
REMARK  200  A    between atoms: _467  and  _469
REMARK  201  A    between atoms: _469  and  _470
REMARK  202  A    between atoms: _469  and  _472
REMARK  203  A    between atoms: _475  and  _477
REMARK  204  A    between atoms: _477  and  _478
REMARK  205  A    between atoms: _477  and  _480
REMARK  206  A    between atoms: _480  and  _481
REMARK  207  A    between atoms: _484  and  _486
REMARK  208  A    between atoms: _486  and  _487
REMARK  209  A    between atoms: _486  and  _489
REMARK  210  A    between atoms: _489  and  _490
REMARK  211  A    between atoms: _493  and  _495
REMARK  212  A    between atoms: _495  and  _496
REMARK  213  A    between atoms: _495  and  _498
REMARK  214  A    between atoms: _498  and  _499
REMARK  215  A    between atoms: _502  and  _504
REMARK  216  A    between atoms: _504  and  _505
REMARK  217  A    between atoms: _504  and  _507
REMARK  218  A    between atoms: _507  and  _508
REMARK  219  A    between atoms: _508  and  _509
REMARK  220  A    between atoms: _509  and  _510
REMARK  221  A    between atoms: _510  and  _511
REMARK  222  A    between atoms: _515  and  _517
REMARK  223  A    between atoms: _517  and  _518
REMARK  224  A    between atoms: _517  and  _520
REMARK  225  A    between atoms: _520  and  _521
REMARK  226  A    between atoms: _526  and  _527
REMARK                            x       y       z     vdW  Elec       q    Type
REMARK                         _______ _______ _______ _____ _____    ______ ____
ROOT
ATOM      1  O   HOH     1      34.969   2.186  21.371  0.00  0.00    +0.000 OA
ENDROOT
TORSDOF 0
REMARK  Name = ../refined-set-2016/2uwd/2uwd_pocket.pdb
REMARK  226 active torsions:
REMARK  status: ('A' for Active; 'I' for Inactive)
REMARK    1  A    between atoms: _1  and  _3
REMARK    2  A    between atoms: _3  and  _4
REMARK    3  A    between atoms: _3  and  _6
REMARK    4  A    between atoms: _6  and  _7
REMARK    5  A    between atoms: _13  and  _15
REMARK    6  A    between atoms: _15  and  _16
REMARK    7  A    between atoms: _15  and  _18
REMARK    8  A    between atoms: _18  and  _19
REMARK    9  A    between atoms: _22  and  _24
REMARK   10  A    between atoms: _24  and  _25
REMARK   11  A    between atoms: _24  and  _27
REMARK   12  A    between atoms: _27  and  _28
REMARK   13  A    between atoms: _28  and  _29
REMARK   14  A    between atoms: _32  and  _34
REMARK   15  A    between atoms: _34  and  _35
REMARK   16  A    between atoms: _34  and  _37
REMARK   17  A    between atoms: _37  and  _38
REMARK   18  A    between atoms: _41  and  _43
REMARK   19  A    between atoms: _43  and  _44
REMARK   20  A    between atoms: _43  and  _46
REMARK   21  A    between atoms: _46  and  _47
REMARK   22  A    between atoms: _50  and  _52
REMARK   23  A    between atoms: _52  and  _53
REMARK   24  A    between atoms: _52  and  _55
REMARK   25  A    between atoms: _55  and  _56
REMARK   26  A    between atoms: _58  and  _60
REMARK   27  A    between atoms: _60  and  _61
REMARK   28  A    between atoms: _60  and  _63
REMARK   29  A    between atoms: _63  and  _64
REMARK   30  A    between atoms: _69  and  _71
REMARK   31  A    between atoms: _71  and  _72
REMARK   32  A    between atoms: _71  and  _74
REMARK   33  A    between atoms: _74  and  _75
REMARK   34  A    between atoms: _77  and  _79
REMARK   35  A    between atoms: _79  and  _80
REMARK   36  A    between atoms: _79  and  _82
REMARK   37  A    between atoms: _82  and  _83
REMARK   38  A    between atoms: _85  and  _87
REMARK   39  A    between atoms: _87  and  _88
REMARK   40  A    between atoms: _87  and  _90
REMARK   41  A    between atoms: _90  and  _91
REMARK   42  A    between atoms: _94  and  _96
REMARK   43  A    between atoms: _96  and  _97
REMARK   44  A    between atoms: _100  and  _102
REMARK   45  A    between atoms: _102  and  _103
REMARK   46  A    between atoms: _102  and  _105
REMARK   47  A    between atoms: _105  and  _106
REMARK   48  A    between atoms: _109  and  _111
REMARK   49  A    between atoms: _111  and  _112
REMARK   50  A    between atoms: _111  and  _114
REMARK   51  A    between atoms: _114  and  _115
REMARK   52  A    between atoms: _118  and  _120
REMARK   53  A    between atoms: _120  and  _121
REMARK   54  A    between atoms: _120  and  _123
REMARK   55  A    between atoms: _123  and  _124
REMARK   56  A    between atoms: _124  and  _125
REMARK   57  A    between atoms: _125  and  _126
REMARK   58  A    between atoms: _126  and  _127
REMARK   59  A    between atoms: _131  and  _133
REMARK   60  A    between atoms: _133  and  _134
REMARK   61  A    between atoms: _133  and  _136
REMARK   62  A    between atoms: _136  and  _137
REMARK   63  A    between atoms: _140  and  _142
REMARK   64  A    between atoms: _142  and  _143
REMARK   65  A    between atoms: _142  and  _145
REMARK   66  A    between atoms: _145  and  _146
REMARK   67  A    between atoms: _146  and  _147
REMARK   68  A    between atoms: _150  and  _152
REMARK   69  A    between atoms: _152  and  _153
REMARK   70  A    between atoms: _152  and  _155
REMARK   71  A    between atoms: _155  and  _156
REMARK   72  A    between atoms: _159  and  _161
REMARK   73  A    between atoms: _161  and  _162
REMARK   74  A    between atoms: _161  and  _164
REMARK   75  A    between atoms: _164  and  _165
REMARK   76  A    between atoms: _168  and  _170
REMARK   77  A    between atoms: _170  and  _171
REMARK   78  A    between atoms: _170  and  _173
REMARK   79  A    between atoms: _176  and  _178
REMARK   80  A    between atoms: _178  and  _179
REMARK   81  A    between atoms: _178  and  _181
REMARK   82  A    between atoms: _181  and  _182
REMARK   83  A    between atoms: _185  and  _187
REMARK   84  A    between atoms: _187  and  _188
REMARK   85  A    between atoms: _187  and  _190
REMARK   86  A    between atoms: _190  and  _191
REMARK   87  A    between atoms: _194  and  _196
REMARK   88  A    between atoms: _196  and  _197
REMARK   89  A    between atoms: _199  and  _201
REMARK   90  A    between atoms: _201  and  _202
REMARK   91  A    between atoms: _201  and  _204
REMARK   92  A    between atoms: _204  and  _205
REMARK   93  A    between atoms: _208  and  _210
REMARK   94  A    between atoms: _210  and  _211
REMARK   95  A    between atoms: _213  and  _215
REMARK   96  A    between atoms: _215  and  _216
REMARK   97  A    between atoms: _215  and  _218
REMARK   98  A    between atoms: _218  and  _219
REMARK   99  A    between atoms: _219  and  _220
REMARK  100  A    between atoms: _222  and  _224
REMARK  101  A    between atoms: _224  and  _225
REMARK  102  A    between atoms: _224  and  _227
REMARK  103  A    between atoms: _227  and  _228
REMARK  104  A    between atoms: _231  and  _233
REMARK  105  A    between atoms: _233  and  _234
REMARK  106  A    between atoms: _237  and  _239
REMARK  107  A    between atoms: _239  and  _240
REMARK  108  A    between atoms: _239  and  _242
REMARK  109  A    between atoms: _242  and  _243
REMARK  110  A    between atoms: _246  and  _248
REMARK  111  A    between atoms: _248  and  _249
REMARK  112  A    between atoms: _248  and  _251
REMARK  113  A    between atoms: _251  and  _252
REMARK  114  A    between atoms: _255  and  _257
REMARK  115  A    between atoms: _257  and  _258
REMARK  116  A    between atoms: _257  and  _260
REMARK  117  A    between atoms: _260  and  _261
REMARK  118  A    between atoms: _266  and  _268
REMARK  119  A    between atoms: _268  and  _269
REMARK  120  A    between atoms: _268  and  _271
REMARK  121  A    between atoms: _271  and  _272
REMARK  122  A    between atoms: _277  and  _279
REMARK  123  A    between atoms: _279  and  _280
REMARK  124  A    between atoms: _279  and  _282
REMARK  125  A    between atoms: _282  and  _283
REMARK  126  A    between atoms: _286  and  _288
REMARK  127  A    between atoms: _288  and  _289
REMARK  128  A    between atoms: _291  and  _293
REMARK  129  A    between atoms: _293  and  _294
REMARK  130  A    between atoms: _293  and  _296
REMARK  131  A    between atoms: _296  and  _297
REMARK  132  A    between atoms: _300  and  _302
REMARK  133  A    between atoms: _302  and  _303
REMARK  134  A    between atoms: _302  and  _305
REMARK  135  A    between atoms: _305  and  _306
REMARK  136  A    between atoms: _309  and  _311
REMARK  137  A    between atoms: _311  and  _312
REMARK  138  A    between atoms: _315  and  _317
REMARK  139  A    between atoms: _317  and  _318
REMARK  140  A    between atoms: _320  and  _322
REMARK  141  A    between atoms: _322  and  _323
REMARK  142  A    between atoms: _322  and  _325
REMARK  143  A    between atoms: _325  and  _326
REMARK  144  A    between atoms: _332  and  _334
REMARK  145  A    between atoms: _334  and  _335
REMARK  146  A    between atoms: _337  and  _339
REMARK  147  A    between atoms: _339  and  _340
REMARK  148  A    between atoms: _339  and  _342
REMARK  149  A    between atoms: _345  and  _347
REMARK  150  A    between atoms: _347  and  _348
REMARK  151  A    between atoms: _350  and  _352
REMARK  152  A    between atoms: _352  and  _353
REMARK  153  A    between atoms: _352  and  _355
REMARK  154  A    between atoms: _355  and  _356
REMARK  155  A    between atoms: _362  and  _364
REMARK  156  A    between atoms: _364  and  _365
REMARK  157  A    between atoms: _364  and  _367
REMARK  158  A    between atoms: _367  and  _368
REMARK  159  A    between atoms: _373  and  _374
REMARK  160  A    between atoms: _376  and  _378
REMARK  161  A    between atoms: _378  and  _379
REMARK  162  A    between atoms: _382  and  _384
REMARK  163  A    between atoms: _384  and  _385
REMARK  164  A    between atoms: _384  and  _387
REMARK  165  A    between atoms: _390  and  _392
REMARK  166  A    between atoms: _392  and  _393
REMARK  167  A    between atoms: _392  and  _395
REMARK  168  A    between atoms: _398  and  _400
REMARK  169  A    between atoms: _400  and  _401
REMARK  170  A    between atoms: _400  and  _403
REMARK  171  A    between atoms: _403  and  _404
REMARK  172  A    between atoms: _407  and  _409
REMARK  173  A    between atoms: _409  and  _410
REMARK  174  A    between atoms: _409  and  _412
REMARK  175  A    between atoms: _412  and  _413
REMARK  176  A    between atoms: _416  and  _418
REMARK  177  A    between atoms: _418  and  _419
REMARK  178  A    between atoms: _418  and  _421
REMARK  179  A    between atoms: _421  and  _422
REMARK  180  A    between atoms: _422  and  _423
REMARK  181  A    between atoms: _423  and  _424
REMARK  182  A    between atoms: _424  and  _425
REMARK  183  A    between atoms: _429  and  _431
REMARK  184  A    between atoms: _431  and  _432
REMARK  185  A    between atoms: _431  and  _434
REMARK  186  A    between atoms: _434  and  _435
REMARK  187  A    between atoms: _440  and  _442
REMARK  188  A    between atoms: _442  and  _443
REMARK  189  A    between atoms: _445  and  _447
REMARK  190  A    between atoms: _447  and  _448
REMARK  191  A    between atoms: _447  and  _450
REMARK  192  A    between atoms: _450  and  _451
REMARK  193  A    between atoms: _454  and  _456
REMARK  194  A    between atoms: _456  and  _457
REMARK  195  A    between atoms: _456  and  _459
REMARK  196  A    between atoms: _459  and  _460
REMARK  197  A    between atoms: _460  and  _461
REMARK  198  A    between atoms: _461  and  _462
REMARK  199  A    between atoms: _462  and  _463
REMARK  200  A    between atoms: _467  and  _469
REMARK  201  A    between atoms: _469  and  _470
REMARK  202  A    between atoms: _469  and  _472
REMARK  203  A    between atoms: _475  and  _477
REMARK  204  A    between atoms: _477  and  _478
REMARK  205  A    between atoms: _477  and  _480
REMARK  206  A    between atoms: _480  and  _481
REMARK  207  A    between atoms: _484  and  _486
REMARK  208  A    between atoms: _486  and  _487
REMARK  209  A    between atoms: _486  and  _489
REMARK  210  A    between atoms: _489  and  _490
REMARK  211  A    between atoms: _493  and  _495
REMARK  212  A    between atoms: _495  and  _496
REMARK  213  A    between atoms: _495  and  _498
REMARK  214  A    between atoms: _498  and  _499
REMARK  215  A    between atoms: _502  and  _504
REMARK  216  A    between atoms: _504  and  _505
REMARK  217  A    between atoms: _504  and  _507
REMARK  218  A    between atoms: _507  and  _508
REMARK  219  A    between atoms: _508  and  _509
REMARK  220  A    between atoms: _509  and  _510
REMARK  221  A    between atoms: _510  and  _511
REMARK  222  A    between atoms: _515  and  _517
REMARK  223  A    between atoms: _517  and  _518
REMARK  224  A    between atoms: _517  and  _520
REMARK  225  A    between atoms: _520  and  _521
REMARK  226  A    between atoms: _526  and  _527
REMARK                            x       y       z     vdW  Elec       q    Type
REMARK                         _______ _______ _______ _____ _____    ______ ____
ROOT
ATOM      1  O   HOH     1      36.691   0.303  16.722  0.00  0.00    +0.000 OA
ENDROOT
TORSDOF 0
REMARK  Name = ../refined-set-2016/2uwd/2uwd_pocket.pdb
REMARK  226 active torsions:
REMARK  status: ('A' for Active; 'I' for Inactive)
REMARK    1  A    between atoms: _1  and  _3
REMARK    2  A    between atoms: _3  and  _4
REMARK    3  A    between atoms: _3  and  _6
REMARK    4  A    between atoms: _6  and  _7
REMARK    5  A    between atoms: _13  and  _15
REMARK    6  A    between atoms: _15  and  _16
REMARK    7  A    between atoms: _15  and  _18
REMARK    8  A    between atoms: _18  and  _19
REMARK    9  A    between atoms: _22  and  _24
REMARK   10  A    between atoms: _24  and  _25
REMARK   11  A    between atoms: _24  and  _27
REMARK   12  A    between atoms: _27  and  _28
REMARK   13  A    between atoms: _28  and  _29
REMARK   14  A    between atoms: _32  and  _34
REMARK   15  A    between atoms: _34  and  _35
REMARK   16  A    between atoms: _34  and  _37
REMARK   17  A    between atoms: _37  and  _38
REMARK   18  A    between atoms: _41  and  _43
REMARK   19  A    between atoms: _43  and  _44
REMARK   20  A    between atoms: _43  and  _46
REMARK   21  A    between atoms: _46  and  _47
REMARK   22  A    between atoms: _50  and  _52
REMARK   23  A    between atoms: _52  and  _53
REMARK   24  A    between atoms: _52  and  _55
REMARK   25  A    between atoms: _55  and  _56
REMARK   26  A    between atoms: _58  and  _60
REMARK   27  A    between atoms: _60  and  _61
REMARK   28  A    between atoms: _60  and  _63
REMARK   29  A    between atoms: _63  and  _64
REMARK   30  A    between atoms: _69  and  _71
REMARK   31  A    between atoms: _71  and  _72
REMARK   32  A    between atoms: _71  and  _74
REMARK   33  A    between atoms: _74  and  _75
REMARK   34  A    between atoms: _77  and  _79
REMARK   35  A    between atoms: _79  and  _80
REMARK   36  A    between atoms: _79  and  _82
REMARK   37  A    between atoms: _82  and  _83
REMARK   38  A    between atoms: _85  and  _87
REMARK   39  A    between atoms: _87  and  _88
REMARK   40  A    between atoms: _87  and  _90
REMARK   41  A    between atoms: _90  and  _91
REMARK   42  A    between atoms: _94  and  _96
REMARK   43  A    between atoms: _96  and  _97
REMARK   44  A    between atoms: _100  and  _102
REMARK   45  A    between atoms: _102  and  _103
REMARK   46  A    between atoms: _102  and  _105
REMARK   47  A    between atoms: _105  and  _106
REMARK   48  A    between atoms: _109  and  _111
REMARK   49  A    between atoms: _111  and  _112
REMARK   50  A    between atoms: _111  and  _114
REMARK   51  A    between atoms: _114  and  _115
REMARK   52  A    between atoms: _118  and  _120
REMARK   53  A    between atoms: _120  and  _121
REMARK   54  A    between atoms: _120  and  _123
REMARK   55  A    between atoms: _123  and  _124
REMARK   56  A    between atoms: _124  and  _125
REMARK   57  A    between atoms: _125  and  _126
REMARK   58  A    between atoms: _126  and  _127
REMARK   59  A    between atoms: _131  and  _133
REMARK   60  A    between atoms: _133  and  _134
REMARK   61  A    between atoms: _133  and  _136
REMARK   62  A    between atoms: _136  and  _137
REMARK   63  A    between atoms: _140  and  _142
REMARK   64  A    between atoms: _142  and  _143
REMARK   65  A    between atoms: _142  and  _145
REMARK   66  A    between atoms: _145  and  _146
REMARK   67  A    between atoms: _146  and  _147
REMARK   68  A    between atoms: _150  and  _152
REMARK   69  A    between atoms: _152  and  _153
REMARK   70  A    between atoms: _152  and  _155
REMARK   71  A    between atoms: _155  and  _156
REMARK   72  A    between atoms: _159  and  _161
REMARK   73  A    between atoms: _161  and  _162
REMARK   74  A    between atoms: _161  and  _164
REMARK   75  A    between atoms: _164  and  _165
REMARK   76  A    between atoms: _168  and  _170
REMARK   77  A    between atoms: _170  and  _171
REMARK   78  A    between atoms: _170  and  _173
REMARK   79  A    between atoms: _176  and  _178
REMARK   80  A    between atoms: _178  and  _179
REMARK   81  A    between atoms: _178  and  _181
REMARK   82  A    between atoms: _181  and  _182
REMARK   83  A    between atoms: _185  and  _187
REMARK   84  A    between atoms: _187  and  _188
REMARK   85  A    between atoms: _187  and  _190
REMARK   86  A    between atoms: _190  and  _191
REMARK   87  A    between atoms: _194  and  _196
REMARK   88  A    between atoms: _196  and  _197
REMARK   89  A    between atoms: _199  and  _201
REMARK   90  A    between atoms: _201  and  _202
REMARK   91  A    between atoms: _201  and  _204
REMARK   92  A    between atoms: _204  and  _205
REMARK   93  A    between atoms: _208  and  _210
REMARK   94  A    between atoms: _210  and  _211
REMARK   95  A    between atoms: _213  and  _215
REMARK   96  A    between atoms: _215  and  _216
REMARK   97  A    between atoms: _215  and  _218
REMARK   98  A    between atoms: _218  and  _219
REMARK   99  A    between atoms: _219  and  _220
REMARK  100  A    between atoms: _222  and  _224
REMARK  101  A    between atoms: _224  and  _225
REMARK  102  A    between atoms: _224  and  _227
REMARK  103  A    between atoms: _227  and  _228
REMARK  104  A    between atoms: _231  and  _233
REMARK  105  A    between atoms: _233  and  _234
REMARK  106  A    between atoms: _237  and  _239
REMARK  107  A    between atoms: _239  and  _240
REMARK  108  A    between atoms: _239  and  _242
REMARK  109  A    between atoms: _242  and  _243
REMARK  110  A    between atoms: _246  and  _248
REMARK  111  A    between atoms: _248  and  _249
REMARK  112  A    between atoms: _248  and  _251
REMARK  113  A    between atoms: _251  and  _252
REMARK  114  A    between atoms: _255  and  _257
REMARK  115  A    between atoms: _257  and  _258
REMARK  116  A    between atoms: _257  and  _260
REMARK  117  A    between atoms: _260  and  _261
REMARK  118  A    between atoms: _266  and  _268
REMARK  119  A    between atoms: _268  and  _269
REMARK  120  A    between atoms: _268  and  _271
REMARK  121  A    between atoms: _271  and  _272
REMARK  122  A    between atoms: _277  and  _279
REMARK  123  A    between atoms: _279  and  _280
REMARK  124  A    between atoms: _279  and  _282
REMARK  125  A    between atoms: _282  and  _283
REMARK  126  A    between atoms: _286  and  _288
REMARK  127  A    between atoms: _288  and  _289
REMARK  128  A    between atoms: _291  and  _293
REMARK  129  A    between atoms: _293  and  _294
REMARK  130  A    between atoms: _293  and  _296
REMARK  131  A    between atoms: _296  and  _297
REMARK  132  A    between atoms: _300  and  _302
REMARK  133  A    between atoms: _302  and  _303
REMARK  134  A    between atoms: _302  and  _305
REMARK  135  A    between atoms: _305  and  _306
REMARK  136  A    between atoms: _309  and  _311
REMARK  137  A    between atoms: _311  and  _312
REMARK  138  A    between atoms: _315  and  _317
REMARK  139  A    between atoms: _317  and  _318
REMARK  140  A    between atoms: _320  and  _322
REMARK  141  A    between atoms: _322  and  _323
REMARK  142  A    between atoms: _322  and  _325
REMARK  143  A    between atoms: _325  and  _326
REMARK  144  A    between atoms: _332  and  _334
REMARK  145  A    between atoms: _334  and  _335
REMARK  146  A    between atoms: _337  and  _339
REMARK  147  A    between atoms: _339  and  _340
REMARK  148  A    between atoms: _339  and  _342
REMARK  149  A    between atoms: _345  and  _347
REMARK  150  A    between atoms: _347  and  _348
REMARK  151  A    between atoms: _350  and  _352
REMARK  152  A    between atoms: _352  and  _353
REMARK  153  A    between atoms: _352  and  _355
REMARK  154  A    between atoms: _355  and  _356
REMARK  155  A    between atoms: _362  and  _364
REMARK  156  A    between atoms: _364  and  _365
REMARK  157  A    between atoms: _364  and  _367
REMARK  158  A    between atoms: _367  and  _368
REMARK  159  A    between atoms: _373  and  _374
REMARK  160  A    between atoms: _376  and  _378
REMARK  161  A    between atoms: _378  and  _379
REMARK  162  A    between atoms: _382  and  _384
REMARK  163  A    between atoms: _384  and  _385
REMARK  164  A    between atoms: _384  and  _387
REMARK  165  A    between atoms: _390  and  _392
REMARK  166  A    between atoms: _392  and  _393
REMARK  167  A    between atoms: _392  and  _395
REMARK  168  A    between atoms: _398  and  _400
REMARK  169  A    between atoms: _400  and  _401
REMARK  170  A    between atoms: _400  and  _403
REMARK  171  A    between atoms: _403  and  _404
REMARK  172  A    between atoms: _407  and  _409
REMARK  173  A    between atoms: _409  and  _410
REMARK  174  A    between atoms: _409  and  _412
REMARK  175  A    between atoms: _412  and  _413
REMARK  176  A    between atoms: _416  and  _418
REMARK  177  A    between atoms: _418  and  _419
REMARK  178  A    between atoms: _418  and  _421
REMARK  179  A    between atoms: _421  and  _422
REMARK  180  A    between atoms: _422  and  _423
REMARK  181  A    between atoms: _423  and  _424
REMARK  182  A    between atoms: _424  and  _425
REMARK  183  A    between atoms: _429  and  _431
REMARK  184  A    between atoms: _431  and  _432
REMARK  185  A    between atoms: _431  and  _434
REMARK  186  A    between atoms: _434  and  _435
REMARK  187  A    between atoms: _440  and  _442
REMARK  188  A    between atoms: _442  and  _443
REMARK  189  A    between atoms: _445  and  _447
REMARK  190  A    between atoms: _447  and  _448
REMARK  191  A    between atoms: _447  and  _450
REMARK  192  A    between atoms: _450  and  _451
REMARK  193  A    between atoms: _454  and  _456
REMARK  194  A    between atoms: _456  and  _457
REMARK  195  A    between atoms: _456  and  _459
REMARK  196  A    between atoms: _459  and  _460
REMARK  197  A    between atoms: _460  and  _461
REMARK  198  A    between atoms: _461  and  _462
REMARK  199  A    between atoms: _462  and  _463
REMARK  200  A    between atoms: _467  and  _469
REMARK  201  A    between atoms: _469  and  _470
REMARK  202  A    between atoms: _469  and  _472
REMARK  203  A    between atoms: _475  and  _477
REMARK  204  A    between atoms: _477  and  _478
REMARK  205  A    between atoms: _477  and  _480
REMARK  206  A    between atoms: _480  and  _481
REMARK  207  A    between atoms: _484  and  _486
REMARK  208  A    between atoms: _486  and  _487
REMARK  209  A    between atoms: _486  and  _489
REMARK  210  A    between atoms: _489  and  _490
REMARK  211  A    between atoms: _493  and  _495
REMARK  212  A    between atoms: _495  and  _496
REMARK  213  A    between atoms: _495  and  _498
REMARK  214  A    between atoms: _498  and  _499
REMARK  215  A    between atoms: _502  and  _504
REMARK  216  A    between atoms: _504  and  _505
REMARK  217  A    between atoms: _504  and  _507
REMARK  218  A    between atoms: _507  and  _508
REMARK  219  A    between atoms: _508  and  _509
REMARK  220  A    between atoms: _509  and  _510
REMARK  221  A    between atoms: _510  and  _511
REMARK  222  A    between atoms: _515  and  _517
REMARK  223  A    between atoms: _517  and  _518
REMARK  224  A    between atoms: _517  and  _520
REMARK  225  A    between atoms: _520  and  _521
REMARK  226  A    between atoms: _526  and  _527
REMARK                            x       y       z     vdW  Elec       q    Type
REMARK                         _______ _______ _______ _____ _____    ______ ____
ROOT
ATOM      1  O   HOH     1      28.490  13.329  20.413  0.00  0.00    +0.000 OA
ENDROOT
TORSDOF 0
REMARK  Name = ../refined-set-2016/2uwd/2uwd_pocket.pdb
REMARK  226 active torsions:
REMARK  status: ('A' for Active; 'I' for Inactive)
REMARK    1  A    between atoms: _1  and  _3
REMARK    2  A    between atoms: _3  and  _4
REMARK    3  A    between atoms: _3  and  _6
REMARK    4  A    between atoms: _6  and  _7
REMARK    5  A    between atoms: _13  and  _15
REMARK    6  A    between atoms: _15  and  _16
REMARK    7  A    between atoms: _15  and  _18
REMARK    8  A    between atoms: _18  and  _19
REMARK    9  A    between atoms: _22  and  _24
REMARK   10  A    between atoms: _24  and  _25
REMARK   11  A    between atoms: _24  and  _27
REMARK   12  A    between atoms: _27  and  _28
REMARK   13  A    between atoms: _28  and  _29
REMARK   14  A    between atoms: _32  and  _34
REMARK   15  A    between atoms: _34  and  _35
REMARK   16  A    between atoms: _34  and  _37
REMARK   17  A    between atoms: _37  and  _38
REMARK   18  A    between atoms: _41  and  _43
REMARK   19  A    between atoms: _43  and  _44
REMARK   20  A    between atoms: _43  and  _46
REMARK   21  A    between atoms: _46  and  _47
REMARK   22  A    between atoms: _50  and  _52
REMARK   23  A    between atoms: _52  and  _53
REMARK   24  A    between atoms: _52  and  _55
REMARK   25  A    between atoms: _55  and  _56
REMARK   26  A    between atoms: _58  and  _60
REMARK   27  A    between atoms: _60  and  _61
REMARK   28  A    between atoms: _60  and  _63
REMARK   29  A    between atoms: _63  and  _64
REMARK   30  A    between atoms: _69  and  _71
REMARK   31  A    between atoms: _71  and  _72
REMARK   32  A    between atoms: _71  and  _74
REMARK   33  A    between atoms: _74  and  _75
REMARK   34  A    between atoms: _77  and  _79
REMARK   35  A    between atoms: _79  and  _80
REMARK   36  A    between atoms: _79  and  _82
REMARK   37  A    between atoms: _82  and  _83
REMARK   38  A    between atoms: _85  and  _87
REMARK   39  A    between atoms: _87  and  _88
REMARK   40  A    between atoms: _87  and  _90
REMARK   41  A    between atoms: _90  and  _91
REMARK   42  A    between atoms: _94  and  _96
REMARK   43  A    between atoms: _96  and  _97
REMARK   44  A    between atoms: _100  and  _102
REMARK   45  A    between atoms: _102  and  _103
REMARK   46  A    between atoms: _102  and  _105
REMARK   47  A    between atoms: _105  and  _106
REMARK   48  A    between atoms: _109  and  _111
REMARK   49  A    between atoms: _111  and  _112
REMARK   50  A    between atoms: _111  and  _114
REMARK   51  A    between atoms: _114  and  _115
REMARK   52  A    between atoms: _118  and  _120
REMARK   53  A    between atoms: _120  and  _121
REMARK   54  A    between atoms: _120  and  _123
REMARK   55  A    between atoms: _123  and  _124
REMARK   56  A    between atoms: _124  and  _125
REMARK   57  A    between atoms: _125  and  _126
REMARK   58  A    between atoms: _126  and  _127
REMARK   59  A    between atoms: _131  and  _133
REMARK   60  A    between atoms: _133  and  _134
REMARK   61  A    between atoms: _133  and  _136
REMARK   62  A    between atoms: _136  and  _137
REMARK   63  A    between atoms: _140  and  _142
REMARK   64  A    between atoms: _142  and  _143
REMARK   65  A    between atoms: _142  and  _145
REMARK   66  A    between atoms: _145  and  _146
REMARK   67  A    between atoms: _146  and  _147
REMARK   68  A    between atoms: _150  and  _152
REMARK   69  A    between atoms: _152  and  _153
REMARK   70  A    between atoms: _152  and  _155
REMARK   71  A    between atoms: _155  and  _156
REMARK   72  A    between atoms: _159  and  _161
REMARK   73  A    between atoms: _161  and  _162
REMARK   74  A    between atoms: _161  and  _164
REMARK   75  A    between atoms: _164  and  _165
REMARK   76  A    between atoms: _168  and  _170
REMARK   77  A    between atoms: _170  and  _171
REMARK   78  A    between atoms: _170  and  _173
REMARK   79  A    between atoms: _176  and  _178
REMARK   80  A    between atoms: _178  and  _179
REMARK   81  A    between atoms: _178  and  _181
REMARK   82  A    between atoms: _181  and  _182
REMARK   83  A    between atoms: _185  and  _187
REMARK   84  A    between atoms: _187  and  _188
REMARK   85  A    between atoms: _187  and  _190
REMARK   86  A    between atoms: _190  and  _191
REMARK   87  A    between atoms: _194  and  _196
REMARK   88  A    between atoms: _196  and  _197
REMARK   89  A    between atoms: _199  and  _201
REMARK   90  A    between atoms: _201  and  _202
REMARK   91  A    between atoms: _201  and  _204
REMARK   92  A    between atoms: _204  and  _205
REMARK   93  A    between atoms: _208  and  _210
REMARK   94  A    between atoms: _210  and  _211
REMARK   95  A    between atoms: _213  and  _215
REMARK   96  A    between atoms: _215  and  _216
REMARK   97  A    between atoms: _215  and  _218
REMARK   98  A    between atoms: _218  and  _219
REMARK   99  A    between atoms: _219  and  _220
REMARK  100  A    between atoms: _222  and  _224
REMARK  101  A    between atoms: _224  and  _225
REMARK  102  A    between atoms: _224  and  _227
REMARK  103  A    between atoms: _227  and  _228
REMARK  104  A    between atoms: _231  and  _233
REMARK  105  A    between atoms: _233  and  _234
REMARK  106  A    between atoms: _237  and  _239
REMARK  107  A    between atoms: _239  and  _240
REMARK  108  A    between atoms: _239  and  _242
REMARK  109  A    between atoms: _242  and  _243
REMARK  110  A    between atoms: _246  and  _248
REMARK  111  A    between atoms: _248  and  _249
REMARK  112  A    between atoms: _248  and  _251
REMARK  113  A    between atoms: _251  and  _252
REMARK  114  A    between atoms: _255  and  _257
REMARK  115  A    between atoms: _257  and  _258
REMARK  116  A    between atoms: _257  and  _260
REMARK  117  A    between atoms: _260  and  _261
REMARK  118  A    between atoms: _266  and  _268
REMARK  119  A    between atoms: _268  and  _269
REMARK  120  A    between atoms: _268  and  _271
REMARK  121  A    between atoms: _271  and  _272
REMARK  122  A    between atoms: _277  and  _279
REMARK  123  A    between atoms: _279  and  _280
REMARK  124  A    between atoms: _279  and  _282
REMARK  125  A    between atoms: _282  and  _283
REMARK  126  A    between atoms: _286  and  _288
REMARK  127  A    between atoms: _288  and  _289
REMARK  128  A    between atoms: _291  and  _293
REMARK  129  A    between atoms: _293  and  _294
REMARK  130  A    between atoms: _293  and  _296
REMARK  131  A    between atoms: _296  and  _297
REMARK  132  A    between atoms: _300  and  _302
REMARK  133  A    between atoms: _302  and  _303
REMARK  134  A    between atoms: _302  and  _305
REMARK  135  A    between atoms: _305  and  _306
REMARK  136  A    between atoms: _309  and  _311
REMARK  137  A    between atoms: _311  and  _312
REMARK  138  A    between atoms: _315  and  _317
REMARK  139  A    between atoms: _317  and  _318
REMARK  140  A    between atoms: _320  and  _322
REMARK  141  A    between atoms: _322  and  _323
REMARK  142  A    between atoms: _322  and  _325
REMARK  143  A    between atoms: _325  and  _326
REMARK  144  A    between atoms: _332  and  _334
REMARK  145  A    between atoms: _334  and  _335
REMARK  146  A    between atoms: _337  and  _339
REMARK  147  A    between atoms: _339  and  _340
REMARK  148  A    between atoms: _339  and  _342
REMARK  149  A    between atoms: _345  and  _347
REMARK  150  A    between atoms: _347  and  _348
REMARK  151  A    between atoms: _350  and  _352
REMARK  152  A    between atoms: _352  and  _353
REMARK  153  A    between atoms: _352  and  _355
REMARK  154  A    between atoms: _355  and  _356
REMARK  155  A    between atoms: _362  and  _364
REMARK  156  A    between atoms: _364  and  _365
REMARK  157  A    between atoms: _364  and  _367
REMARK  158  A    between atoms: _367  and  _368
REMARK  159  A    between atoms: _373  and  _374
REMARK  160  A    between atoms: _376  and  _378
REMARK  161  A    between atoms: _378  and  _379
REMARK  162  A    between atoms: _382  and  _384
REMARK  163  A    between atoms: _384  and  _385
REMARK  164  A    between atoms: _384  and  _387
REMARK  165  A    between atoms: _390  and  _392
REMARK  166  A    between atoms: _392  and  _393
REMARK  167  A    between atoms: _392  and  _395
REMARK  168  A    between atoms: _398  and  _400
REMARK  169  A    between atoms: _400  and  _401
REMARK  170  A    between atoms: _400  and  _403
REMARK  171  A    between atoms: _403  and  _404
REMARK  172  A    between atoms: _407  and  _409
REMARK  173  A    between atoms: _409  and  _410
REMARK  174  A    between atoms: _409  and  _412
REMARK  175  A    between atoms: _412  and  _413
REMARK  176  A    between atoms: _416  and  _418
REMARK  177  A    between atoms: _418  and  _419
REMARK  178  A    between atoms: _418  and  _421
REMARK  179  A    between atoms: _421  and  _422
REMARK  180  A    between atoms: _422  and  _423
REMARK  181  A    between atoms: _423  and  _424
REMARK  182  A    between atoms: _424  and  _425
REMARK  183  A    between atoms: _429  and  _431
REMARK  184  A    between atoms: _431  and  _432
REMARK  185  A    between atoms: _431  and  _434
REMARK  186  A    between atoms: _434  and  _435
REMARK  187  A    between atoms: _440  and  _442
REMARK  188  A    between atoms: _442  and  _443
REMARK  189  A    between atoms: _445  and  _447
REMARK  190  A    between atoms: _447  and  _448
REMARK  191  A    between atoms: _447  and  _450
REMARK  192  A    between atoms: _450  and  _451
REMARK  193  A    between atoms: _454  and  _456
REMARK  194  A    between atoms: _456  and  _457
REMARK  195  A    between atoms: _456  and  _459
REMARK  196  A    between atoms: _459  and  _460
REMARK  197  A    between atoms: _460  and  _461
REMARK  198  A    between atoms: _461  and  _462
REMARK  199  A    between atoms: _462  and  _463
REMARK  200  A    between atoms: _467  and  _469
REMARK  201  A    between atoms: _469  and  _470
REMARK  202  A    between atoms: _469  and  _472
REMARK  203  A    between atoms: _475  and  _477
REMARK  204  A    between atoms: _477  and  _478
REMARK  205  A    between atoms: _477  and  _480
REMARK  206  A    between atoms: _480  and  _481
REMARK  207  A    between atoms: _484  and  _486
REMARK  208  A    between atoms: _486  and  _487
REMARK  209  A    between atoms: _486  and  _489
REMARK  210  A    between atoms: _489  and  _490
REMARK  211  A    between atoms: _493  and  _495
REMARK  212  A    between atoms: _495  and  _496
REMARK  213  A    between atoms: _495  and  _498
REMARK  214  A    between atoms: _498  and  _499
REMARK  215  A    between atoms: _502  and  _504
REMARK  216  A    between atoms: _504  and  _505
REMARK  217  A    between atoms: _504  and  _507
REMARK  218  A    between atoms: _507  and  _508
REMARK  219  A    between atoms: _508  and  _509
REMARK  220  A    between atoms: _509  and  _510
REMARK  221  A    between atoms: _510  and  _511
REMARK  222  A    between atoms: _515  and  _517
REMARK  223  A    between atoms: _517  and  _518
REMARK  224  A    between atoms: _517  and  _520
REMARK  225  A    between atoms: _520  and  _521
REMARK  226  A    between atoms: _526  and  _527
REMARK                            x       y       z     vdW  Elec       q    Type
REMARK                         _______ _______ _______ _____ _____    ______ ____
ROOT
ATOM      1  O   HOH     1      34.980   3.532  24.807  0.00  0.00    +0.000 OA
ENDROOT
TORSDOF 0
REMARK  Name = ../refined-set-2016/2uwd/2uwd_pocket.pdb
REMARK  226 active torsions:
REMARK  status: ('A' for Active; 'I' for Inactive)
REMARK    1  A    between atoms: _1  and  _3
REMARK    2  A    between atoms: _3  and  _4
REMARK    3  A    between atoms: _3  and  _6
REMARK    4  A    between atoms: _6  and  _7
REMARK    5  A    between atoms: _13  and  _15
REMARK    6  A    between atoms: _15  and  _16
REMARK    7  A    between atoms: _15  and  _18
REMARK    8  A    between atoms: _18  and  _19
REMARK    9  A    between atoms: _22  and  _24
REMARK   10  A    between atoms: _24  and  _25
REMARK   11  A    between atoms: _24  and  _27
REMARK   12  A    between atoms: _27  and  _28
REMARK   13  A    between atoms: _28  and  _29
REMARK   14  A    between atoms: _32  and  _34
REMARK   15  A    between atoms: _34  and  _35
REMARK   16  A    between atoms: _34  and  _37
REMARK   17  A    between atoms: _37  and  _38
REMARK   18  A    between atoms: _41  and  _43
REMARK   19  A    between atoms: _43  and  _44
REMARK   20  A    between atoms: _43  and  _46
REMARK   21  A    between atoms: _46  and  _47
REMARK   22  A    between atoms: _50  and  _52
REMARK   23  A    between atoms: _52  and  _53
REMARK   24  A    between atoms: _52  and  _55
REMARK   25  A    between atoms: _55  and  _56
REMARK   26  A    between atoms: _58  and  _60
REMARK   27  A    between atoms: _60  and  _61
REMARK   28  A    between atoms: _60  and  _63
REMARK   29  A    between atoms: _63  and  _64
REMARK   30  A    between atoms: _69  and  _71
REMARK   31  A    between atoms: _71  and  _72
REMARK   32  A    between atoms: _71  and  _74
REMARK   33  A    between atoms: _74  and  _75
REMARK   34  A    between atoms: _77  and  _79
REMARK   35  A    between atoms: _79  and  _80
REMARK   36  A    between atoms: _79  and  _82
REMARK   37  A    between atoms: _82  and  _83
REMARK   38  A    between atoms: _85  and  _87
REMARK   39  A    between atoms: _87  and  _88
REMARK   40  A    between atoms: _87  and  _90
REMARK   41  A    between atoms: _90  and  _91
REMARK   42  A    between atoms: _94  and  _96
REMARK   43  A    between atoms: _96  and  _97
REMARK   44  A    between atoms: _100  and  _102
REMARK   45  A    between atoms: _102  and  _103
REMARK   46  A    between atoms: _102  and  _105
REMARK   47  A    between atoms: _105  and  _106
REMARK   48  A    between atoms: _109  and  _111
REMARK   49  A    between atoms: _111  and  _112
REMARK   50  A    between atoms: _111  and  _114
REMARK   51  A    between atoms: _114  and  _115
REMARK   52  A    between atoms: _118  and  _120
REMARK   53  A    between atoms: _120  and  _121
REMARK   54  A    between atoms: _120  and  _123
REMARK   55  A    between atoms: _123  and  _124
REMARK   56  A    between atoms: _124  and  _125
REMARK   57  A    between atoms: _125  and  _126
REMARK   58  A    between atoms: _126  and  _127
REMARK   59  A    between atoms: _131  and  _133
REMARK   60  A    between atoms: _133  and  _134
REMARK   61  A    between atoms: _133  and  _136
REMARK   62  A    between atoms: _136  and  _137
REMARK   63  A    between atoms: _140  and  _142
REMARK   64  A    between atoms: _142  and  _143
REMARK   65  A    between atoms: _142  and  _145
REMARK   66  A    between atoms: _145  and  _146
REMARK   67  A    between atoms: _146  and  _147
REMARK   68  A    between atoms: _150  and  _152
REMARK   69  A    between atoms: _152  and  _153
REMARK   70  A    between atoms: _152  and  _155
REMARK   71  A    between atoms: _155  and  _156
REMARK   72  A    between atoms: _159  and  _161
REMARK   73  A    between atoms: _161  and  _162
REMARK   74  A    between atoms: _161  and  _164
REMARK   75  A    between atoms: _164  and  _165
REMARK   76  A    between atoms: _168  and  _170
REMARK   77  A    between atoms: _170  and  _171
REMARK   78  A    between atoms: _170  and  _173
REMARK   79  A    between atoms: _176  and  _178
REMARK   80  A    between atoms: _178  and  _179
REMARK   81  A    between atoms: _178  and  _181
REMARK   82  A    between atoms: _181  and  _182
REMARK   83  A    between atoms: _185  and  _187
REMARK   84  A    between atoms: _187  and  _188
REMARK   85  A    between atoms: _187  and  _190
REMARK   86  A    between atoms: _190  and  _191
REMARK   87  A    between atoms: _194  and  _196
REMARK   88  A    between atoms: _196  and  _197
REMARK   89  A    between atoms: _199  and  _201
REMARK   90  A    between atoms: _201  and  _202
REMARK   91  A    between atoms: _201  and  _204
REMARK   92  A    between atoms: _204  and  _205
REMARK   93  A    between atoms: _208  and  _210
REMARK   94  A    between atoms: _210  and  _211
REMARK   95  A    between atoms: _213  and  _215
REMARK   96  A    between atoms: _215  and  _216
REMARK   97  A    between atoms: _215  and  _218
REMARK   98  A    between atoms: _218  and  _219
REMARK   99  A    between atoms: _219  and  _220
REMARK  100  A    between atoms: _222  and  _224
REMARK  101  A    between atoms: _224  and  _225
REMARK  102  A    between atoms: _224  and  _227
REMARK  103  A    between atoms: _227  and  _228
REMARK  104  A    between atoms: _231  and  _233
REMARK  105  A    between atoms: _233  and  _234
REMARK  106  A    between atoms: _237  and  _239
REMARK  107  A    between atoms: _239  and  _240
REMARK  108  A    between atoms: _239  and  _242
REMARK  109  A    between atoms: _242  and  _243
REMARK  110  A    between atoms: _246  and  _248
REMARK  111  A    between atoms: _248  and  _249
REMARK  112  A    between atoms: _248  and  _251
REMARK  113  A    between atoms: _251  and  _252
REMARK  114  A    between atoms: _255  and  _257
REMARK  115  A    between atoms: _257  and  _258
REMARK  116  A    between atoms: _257  and  _260
REMARK  117  A    between atoms: _260  and  _261
REMARK  118  A    between atoms: _266  and  _268
REMARK  119  A    between atoms: _268  and  _269
REMARK  120  A    between atoms: _268  and  _271
REMARK  121  A    between atoms: _271  and  _272
REMARK  122  A    between atoms: _277  and  _279
REMARK  123  A    between atoms: _279  and  _280
REMARK  124  A    between atoms: _279  and  _282
REMARK  125  A    between atoms: _282  and  _283
REMARK  126  A    between atoms: _286  and  _288
REMARK  127  A    between atoms: _288  and  _289
REMARK  128  A    between atoms: _291  and  _293
REMARK  129  A    between atoms: _293  and  _294
REMARK  130  A    between atoms: _293  and  _296
REMARK  131  A    between atoms: _296  and  _297
REMARK  132  A    between atoms: _300  and  _302
REMARK  133  A    between atoms: _302  and  _303
REMARK  134  A    between atoms: _302  and  _305
REMARK  135  A    between atoms: _305  and  _306
REMARK  136  A    between atoms: _309  and  _311
REMARK  137  A    between atoms: _311  and  _312
REMARK  138  A    between atoms: _315  and  _317
REMARK  139  A    between atoms: _317  and  _318
REMARK  140  A    between atoms: _320  and  _322
REMARK  141  A    between atoms: _322  and  _323
REMARK  142  A    between atoms: _322  and  _325
REMARK  143  A    between atoms: _325  and  _326
REMARK  144  A    between atoms: _332  and  _334
REMARK  145  A    between atoms: _334  and  _335
REMARK  146  A    between atoms: _337  and  _339
REMARK  147  A    between atoms: _339  and  _340
REMARK  148  A    between atoms: _339  and  _342
REMARK  149  A    between atoms: _345  and  _347
REMARK  150  A    between atoms: _347  and  _348
REMARK  151  A    between atoms: _350  and  _352
REMARK  152  A    between atoms: _352  and  _353
REMARK  153  A    between atoms: _352  and  _355
REMARK  154  A    between atoms: _355  and  _356
REMARK  155  A    between atoms: _362  and  _364
REMARK  156  A    between atoms: _364  and  _365
REMARK  157  A    between atoms: _364  and  _367
REMARK  158  A    between atoms: _367  and  _368
REMARK  159  A    between atoms: _373  and  _374
REMARK  160  A    between atoms: _376  and  _378
REMARK  161  A    between atoms: _378  and  _379
REMARK  162  A    between atoms: _382  and  _384
REMARK  163  A    between atoms: _384  and  _385
REMARK  164  A    between atoms: _384  and  _387
REMARK  165  A    between atoms: _390  and  _392
REMARK  166  A    between atoms: _392  and  _393
REMARK  167  A    between atoms: _392  and  _395
REMARK  168  A    between atoms: _398  and  _400
REMARK  169  A    between atoms: _400  and  _401
REMARK  170  A    between atoms: _400  and  _403
REMARK  171  A    between atoms: _403  and  _404
REMARK  172  A    between atoms: _407  and  _409
REMARK  173  A    between atoms: _409  and  _410
REMARK  174  A    between atoms: _409  and  _412
REMARK  175  A    between atoms: _412  and  _413
REMARK  176  A    between atoms: _416  and  _418
REMARK  177  A    between atoms: _418  and  _419
REMARK  178  A    between atoms: _418  and  _421
REMARK  179  A    between atoms: _421  and  _422
REMARK  180  A    between atoms: _422  and  _423
REMARK  181  A    between atoms: _423  and  _424
REMARK  182  A    between atoms: _424  and  _425
REMARK  183  A    between atoms: _429  and  _431
REMARK  184  A    between atoms: _431  and  _432
REMARK  185  A    between atoms: _431  and  _434
REMARK  186  A    between atoms: _434  and  _435
REMARK  187  A    between atoms: _440  and  _442
REMARK  188  A    between atoms: _442  and  _443
REMARK  189  A    between atoms: _445  and  _447
REMARK  190  A    between atoms: _447  and  _448
REMARK  191  A    between atoms: _447  and  _450
REMARK  192  A    between atoms: _450  and  _451
REMARK  193  A    between atoms: _454  and  _456
REMARK  194  A    between atoms: _456  and  _457
REMARK  195  A    between atoms: _456  and  _459
REMARK  196  A    between atoms: _459  and  _460
REMARK  197  A    between atoms: _460  and  _461
REMARK  198  A    between atoms: _461  and  _462
REMARK  199  A    between atoms: _462  and  _463
REMARK  200  A    between atoms: _467  and  _469
REMARK  201  A    between atoms: _469  and  _470
REMARK  202  A    between atoms: _469  and  _472
REMARK  203  A    between atoms: _475  and  _477
REMARK  204  A    between atoms: _477  and  _478
REMARK  205  A    between atoms: _477  and  _480
REMARK  206  A    between atoms: _480  and  _481
REMARK  207  A    between atoms: _484  and  _486
REMARK  208  A    between atoms: _486  and  _487
REMARK  209  A    between atoms: _486  and  _489
REMARK  210  A    between atoms: _489  and  _490
REMARK  211  A    between atoms: _493  and  _495
REMARK  212  A    between atoms: _495  and  _496
REMARK  213  A    between atoms: _495  and  _498
REMARK  214  A    between atoms: _498  and  _499
REMARK  215  A    between atoms: _502  and  _504
REMARK  216  A    between atoms: _504  and  _505
REMARK  217  A    between atoms: _504  and  _507
REMARK  218  A    between atoms: _507  and  _508
REMARK  219  A    between atoms: _508  and  _509
REMARK  220  A    between atoms: _509  and  _510
REMARK  221  A    between atoms: _510  and  _511
REMARK  222  A    between atoms: _515  and  _517
REMARK  223  A    between atoms: _517  and  _518
REMARK  224  A    between atoms: _517  and  _520
REMARK  225  A    between atoms: _520  and  _521
REMARK  226  A    between atoms: _526  and  _527
REMARK                            x       y       z     vdW  Elec       q    Type
REMARK                         _______ _______ _______ _____ _____    ______ ____
ROOT
ATOM      1  O   HOH     1      37.288   3.528  24.392  0.00  0.00    +0.000 OA
ENDROOT
TORSDOF 0
REMARK  Name = ../refined-set-2016/2uwd/2uwd_pocket.pdb
REMARK  226 active torsions:
REMARK  status: ('A' for Active; 'I' for Inactive)
REMARK    1  A    between atoms: _1  and  _3
REMARK    2  A    between atoms: _3  and  _4
REMARK    3  A    between atoms: _3  and  _6
REMARK    4  A    between atoms: _6  and  _7
REMARK    5  A    between atoms: _13  and  _15
REMARK    6  A    between atoms: _15  and  _16
REMARK    7  A    between atoms: _15  and  _18
REMARK    8  A    between atoms: _18  and  _19
REMARK    9  A    between atoms: _22  and  _24
REMARK   10  A    between atoms: _24  and  _25
REMARK   11  A    between atoms: _24  and  _27
REMARK   12  A    between atoms: _27  and  _28
REMARK   13  A    between atoms: _28  and  _29
REMARK   14  A    between atoms: _32  and  _34
REMARK   15  A    between atoms: _34  and  _35
REMARK   16  A    between atoms: _34  and  _37
REMARK   17  A    between atoms: _37  and  _38
REMARK   18  A    between atoms: _41  and  _43
REMARK   19  A    between atoms: _43  and  _44
REMARK   20  A    between atoms: _43  and  _46
REMARK   21  A    between atoms: _46  and  _47
REMARK   22  A    between atoms: _50  and  _52
REMARK   23  A    between atoms: _52  and  _53
REMARK   24  A    between atoms: _52  and  _55
REMARK   25  A    between atoms: _55  and  _56
REMARK   26  A    between atoms: _58  and  _60
REMARK   27  A    between atoms: _60  and  _61
REMARK   28  A    between atoms: _60  and  _63
REMARK   29  A    between atoms: _63  and  _64
REMARK   30  A    between atoms: _69  and  _71
REMARK   31  A    between atoms: _71  and  _72
REMARK   32  A    between atoms: _71  and  _74
REMARK   33  A    between atoms: _74  and  _75
REMARK   34  A    between atoms: _77  and  _79
REMARK   35  A    between atoms: _79  and  _80
REMARK   36  A    between atoms: _79  and  _82
REMARK   37  A    between atoms: _82  and  _83
REMARK   38  A    between atoms: _85  and  _87
REMARK   39  A    between atoms: _87  and  _88
REMARK   40  A    between atoms: _87  and  _90
REMARK   41  A    between atoms: _90  and  _91
REMARK   42  A    between atoms: _94  and  _96
REMARK   43  A    between atoms: _96  and  _97
REMARK   44  A    between atoms: _100  and  _102
REMARK   45  A    between atoms: _102  and  _103
REMARK   46  A    between atoms: _102  and  _105
REMARK   47  A    between atoms: _105  and  _106
REMARK   48  A    between atoms: _109  and  _111
REMARK   49  A    between atoms: _111  and  _112
REMARK   50  A    between atoms: _111  and  _114
REMARK   51  A    between atoms: _114  and  _115
REMARK   52  A    between atoms: _118  and  _120
REMARK   53  A    between atoms: _120  and  _121
REMARK   54  A    between atoms: _120  and  _123
REMARK   55  A    between atoms: _123  and  _124
REMARK   56  A    between atoms: _124  and  _125
REMARK   57  A    between atoms: _125  and  _126
REMARK   58  A    between atoms: _126  and  _127
REMARK   59  A    between atoms: _131  and  _133
REMARK   60  A    between atoms: _133  and  _134
REMARK   61  A    between atoms: _133  and  _136
REMARK   62  A    between atoms: _136  and  _137
REMARK   63  A    between atoms: _140  and  _142
REMARK   64  A    between atoms: _142  and  _143
REMARK   65  A    between atoms: _142  and  _145
REMARK   66  A    between atoms: _145  and  _146
REMARK   67  A    between atoms: _146  and  _147
REMARK   68  A    between atoms: _150  and  _152
REMARK   69  A    between atoms: _152  and  _153
REMARK   70  A    between atoms: _152  and  _155
REMARK   71  A    between atoms: _155  and  _156
REMARK   72  A    between atoms: _159  and  _161
REMARK   73  A    between atoms: _161  and  _162
REMARK   74  A    between atoms: _161  and  _164
REMARK   75  A    between atoms: _164  and  _165
REMARK   76  A    between atoms: _168  and  _170
REMARK   77  A    between atoms: _170  and  _171
REMARK   78  A    between atoms: _170  and  _173
REMARK   79  A    between atoms: _176  and  _178
REMARK   80  A    between atoms: _178  and  _179
REMARK   81  A    between atoms: _178  and  _181
REMARK   82  A    between atoms: _181  and  _182
REMARK   83  A    between atoms: _185  and  _187
REMARK   84  A    between atoms: _187  and  _188
REMARK   85  A    between atoms: _187  and  _190
REMARK   86  A    between atoms: _190  and  _191
REMARK   87  A    between atoms: _194  and  _196
REMARK   88  A    between atoms: _196  and  _197
REMARK   89  A    between atoms: _199  and  _201
REMARK   90  A    between atoms: _201  and  _202
REMARK   91  A    between atoms: _201  and  _204
REMARK   92  A    between atoms: _204  and  _205
REMARK   93  A    between atoms: _208  and  _210
REMARK   94  A    between atoms: _210  and  _211
REMARK   95  A    between atoms: _213  and  _215
REMARK   96  A    between atoms: _215  and  _216
REMARK   97  A    between atoms: _215  and  _218
REMARK   98  A    between atoms: _218  and  _219
REMARK   99  A    between atoms: _219  and  _220
REMARK  100  A    between atoms: _222  and  _224
REMARK  101  A    between atoms: _224  and  _225
REMARK  102  A    between atoms: _224  and  _227
REMARK  103  A    between atoms: _227  and  _228
REMARK  104  A    between atoms: _231  and  _233
REMARK  105  A    between atoms: _233  and  _234
REMARK  106  A    between atoms: _237  and  _239
REMARK  107  A    between atoms: _239  and  _240
REMARK  108  A    between atoms: _239  and  _242
REMARK  109  A    between atoms: _242  and  _243
REMARK  110  A    between atoms: _246  and  _248
REMARK  111  A    between atoms: _248  and  _249
REMARK  112  A    between atoms: _248  and  _251
REMARK  113  A    between atoms: _251  and  _252
REMARK  114  A    between atoms: _255  and  _257
REMARK  115  A    between atoms: _257  and  _258
REMARK  116  A    between atoms: _257  and  _260
REMARK  117  A    between atoms: _260  and  _261
REMARK  118  A    between atoms: _266  and  _268
REMARK  119  A    between atoms: _268  and  _269
REMARK  120  A    between atoms: _268  and  _271
REMARK  121  A    between atoms: _271  and  _272
REMARK  122  A    between atoms: _277  and  _279
REMARK  123  A    between atoms: _279  and  _280
REMARK  124  A    between atoms: _279  and  _282
REMARK  125  A    between atoms: _282  and  _283
REMARK  126  A    between atoms: _286  and  _288
REMARK  127  A    between atoms: _288  and  _289
REMARK  128  A    between atoms: _291  and  _293
REMARK  129  A    between atoms: _293  and  _294
REMARK  130  A    between atoms: _293  and  _296
REMARK  131  A    between atoms: _296  and  _297
REMARK  132  A    between atoms: _300  and  _302
REMARK  133  A    between atoms: _302  and  _303
REMARK  134  A    between atoms: _302  and  _305
REMARK  135  A    between atoms: _305  and  _306
REMARK  136  A    between atoms: _309  and  _311
REMARK  137  A    between atoms: _311  and  _312
REMARK  138  A    between atoms: _315  and  _317
REMARK  139  A    between atoms: _317  and  _318
REMARK  140  A    between atoms: _320  and  _322
REMARK  141  A    between atoms: _322  and  _323
REMARK  142  A    between atoms: _322  and  _325
REMARK  143  A    between atoms: _325  and  _326
REMARK  144  A    between atoms: _332  and  _334
REMARK  145  A    between atoms: _334  and  _335
REMARK  146  A    between atoms: _337  and  _339
REMARK  147  A    between atoms: _339  and  _340
REMARK  148  A    between atoms: _339  and  _342
REMARK  149  A    between atoms: _345  and  _347
REMARK  150  A    between atoms: _347  and  _348
REMARK  151  A    between atoms: _350  and  _352
REMARK  152  A    between atoms: _352  and  _353
REMARK  153  A    between atoms: _352  and  _355
REMARK  154  A    between atoms: _355  and  _356
REMARK  155  A    between atoms: _362  and  _364
REMARK  156  A    between atoms: _364  and  _365
REMARK  157  A    between atoms: _364  and  _367
REMARK  158  A    between atoms: _367  and  _368
REMARK  159  A    between atoms: _373  and  _374
REMARK  160  A    between atoms: _376  and  _378
REMARK  161  A    between atoms: _378  and  _379
REMARK  162  A    between atoms: _382  and  _384
REMARK  163  A    between atoms: _384  and  _385
REMARK  164  A    between atoms: _384  and  _387
REMARK  165  A    between atoms: _390  and  _392
REMARK  166  A    between atoms: _392  and  _393
REMARK  167  A    between atoms: _392  and  _395
REMARK  168  A    between atoms: _398  and  _400
REMARK  169  A    between atoms: _400  and  _401
REMARK  170  A    between atoms: _400  and  _403
REMARK  171  A    between atoms: _403  and  _404
REMARK  172  A    between atoms: _407  and  _409
REMARK  173  A    between atoms: _409  and  _410
REMARK  174  A    between atoms: _409  and  _412
REMARK  175  A    between atoms: _412  and  _413
REMARK  176  A    between atoms: _416  and  _418
REMARK  177  A    between atoms: _418  and  _419
REMARK  178  A    between atoms: _418  and  _421
REMARK  179  A    between atoms: _421  and  _422
REMARK  180  A    between atoms: _422  and  _423
REMARK  181  A    between atoms: _423  and  _424
REMARK  182  A    between atoms: _424  and  _425
REMARK  183  A    between atoms: _429  and  _431
REMARK  184  A    between atoms: _431  and  _432
REMARK  185  A    between atoms: _431  and  _434
REMARK  186  A    between atoms: _434  and  _435
REMARK  187  A    between atoms: _440  and  _442
REMARK  188  A    between atoms: _442  and  _443
REMARK  189  A    between atoms: _445  and  _447
REMARK  190  A    between atoms: _447  and  _448
REMARK  191  A    between atoms: _447  and  _450
REMARK  192  A    between atoms: _450  and  _451
REMARK  193  A    between atoms: _454  and  _456
REMARK  194  A    between atoms: _456  and  _457
REMARK  195  A    between atoms: _456  and  _459
REMARK  196  A    between atoms: _459  and  _460
REMARK  197  A    between atoms: _460  and  _461
REMARK  198  A    between atoms: _461  and  _462
REMARK  199  A    between atoms: _462  and  _463
REMARK  200  A    between atoms: _467  and  _469
REMARK  201  A    between atoms: _469  and  _470
REMARK  202  A    between atoms: _469  and  _472
REMARK  203  A    between atoms: _475  and  _477
REMARK  204  A    between atoms: _477  and  _478
REMARK  205  A    between atoms: _477  and  _480
REMARK  206  A    between atoms: _480  and  _481
REMARK  207  A    between atoms: _484  and  _486
REMARK  208  A    between atoms: _486  and  _487
REMARK  209  A    between atoms: _486  and  _489
REMARK  210  A    between atoms: _489  and  _490
REMARK  211  A    between atoms: _493  and  _495
REMARK  212  A    between atoms: _495  and  _496
REMARK  213  A    between atoms: _495  and  _498
REMARK  214  A    between atoms: _498  and  _499
REMARK  215  A    between atoms: _502  and  _504
REMARK  216  A    between atoms: _504  and  _505
REMARK  217  A    between atoms: _504  and  _507
REMARK  218  A    between atoms: _507  and  _508
REMARK  219  A    between atoms: _508  and  _509
REMARK  220  A    between atoms: _509  and  _510
REMARK  221  A    between atoms: _510  and  _511
REMARK  222  A    between atoms: _515  and  _517
REMARK  223  A    between atoms: _517  and  _518
REMARK  224  A    between atoms: _517  and  _520
REMARK  225  A    between atoms: _520  and  _521
REMARK  226  A    between atoms: _526  and  _527
REMARK                            x       y       z     vdW  Elec       q    Type
REMARK                         _______ _______ _______ _____ _____    ______ ____
ROOT
ATOM      1  O   HOH     1      31.585   4.472  25.506  0.00  0.00    +0.000 OA
ENDROOT
TORSDOF 0
REMARK  Name = ../refined-set-2016/2uwd/2uwd_pocket.pdb
REMARK  226 active torsions:
REMARK  status: ('A' for Active; 'I' for Inactive)
REMARK    1  A    between atoms: _1  and  _3
REMARK    2  A    between atoms: _3  and  _4
REMARK    3  A    between atoms: _3  and  _6
REMARK    4  A    between atoms: _6  and  _7
REMARK    5  A    between atoms: _13  and  _15
REMARK    6  A    between atoms: _15  and  _16
REMARK    7  A    between atoms: _15  and  _18
REMARK    8  A    between atoms: _18  and  _19
REMARK    9  A    between atoms: _22  and  _24
REMARK   10  A    between atoms: _24  and  _25
REMARK   11  A    between atoms: _24  and  _27
REMARK   12  A    between atoms: _27  and  _28
REMARK   13  A    between atoms: _28  and  _29
REMARK   14  A    between atoms: _32  and  _34
REMARK   15  A    between atoms: _34  and  _35
REMARK   16  A    between atoms: _34  and  _37
REMARK   17  A    between atoms: _37  and  _38
REMARK   18  A    between atoms: _41  and  _43
REMARK   19  A    between atoms: _43  and  _44
REMARK   20  A    between atoms: _43  and  _46
REMARK   21  A    between atoms: _46  and  _47
REMARK   22  A    between atoms: _50  and  _52
REMARK   23  A    between atoms: _52  and  _53
REMARK   24  A    between atoms: _52  and  _55
REMARK   25  A    between atoms: _55  and  _56
REMARK   26  A    between atoms: _58  and  _60
REMARK   27  A    between atoms: _60  and  _61
REMARK   28  A    between atoms: _60  and  _63
REMARK   29  A    between atoms: _63  and  _64
REMARK   30  A    between atoms: _69  and  _71
REMARK   31  A    between atoms: _71  and  _72
REMARK   32  A    between atoms: _71  and  _74
REMARK   33  A    between atoms: _74  and  _75
REMARK   34  A    between atoms: _77  and  _79
REMARK   35  A    between atoms: _79  and  _80
REMARK   36  A    between atoms: _79  and  _82
REMARK   37  A    between atoms: _82  and  _83
REMARK   38  A    between atoms: _85  and  _87
REMARK   39  A    between atoms: _87  and  _88
REMARK   40  A    between atoms: _87  and  _90
REMARK   41  A    between atoms: _90  and  _91
REMARK   42  A    between atoms: _94  and  _96
REMARK   43  A    between atoms: _96  and  _97
REMARK   44  A    between atoms: _100  and  _102
REMARK   45  A    between atoms: _102  and  _103
REMARK   46  A    between atoms: _102  and  _105
REMARK   47  A    between atoms: _105  and  _106
REMARK   48  A    between atoms: _109  and  _111
REMARK   49  A    between atoms: _111  and  _112
REMARK   50  A    between atoms: _111  and  _114
REMARK   51  A    between atoms: _114  and  _115
REMARK   52  A    between atoms: _118  and  _120
REMARK   53  A    between atoms: _120  and  _121
REMARK   54  A    between atoms: _120  and  _123
REMARK   55  A    between atoms: _123  and  _124
REMARK   56  A    between atoms: _124  and  _125
REMARK   57  A    between atoms: _125  and  _126
REMARK   58  A    between atoms: _126  and  _127
REMARK   59  A    between atoms: _131  and  _133
REMARK   60  A    between atoms: _133  and  _134
REMARK   61  A    between atoms: _133  and  _136
REMARK   62  A    between atoms: _136  and  _137
REMARK   63  A    between atoms: _140  and  _142
REMARK   64  A    between atoms: _142  and  _143
REMARK   65  A    between atoms: _142  and  _145
REMARK   66  A    between atoms: _145  and  _146
REMARK   67  A    between atoms: _146  and  _147
REMARK   68  A    between atoms: _150  and  _152
REMARK   69  A    between atoms: _152  and  _153
REMARK   70  A    between atoms: _152  and  _155
REMARK   71  A    between atoms: _155  and  _156
REMARK   72  A    between atoms: _159  and  _161
REMARK   73  A    between atoms: _161  and  _162
REMARK   74  A    between atoms: _161  and  _164
REMARK   75  A    between atoms: _164  and  _165
REMARK   76  A    between atoms: _168  and  _170
REMARK   77  A    between atoms: _170  and  _171
REMARK   78  A    between atoms: _170  and  _173
REMARK   79  A    between atoms: _176  and  _178
REMARK   80  A    between atoms: _178  and  _179
REMARK   81  A    between atoms: _178  and  _181
REMARK   82  A    between atoms: _181  and  _182
REMARK   83  A    between atoms: _185  and  _187
REMARK   84  A    between atoms: _187  and  _188
REMARK   85  A    between atoms: _187  and  _190
REMARK   86  A    between atoms: _190  and  _191
REMARK   87  A    between atoms: _194  and  _196
REMARK   88  A    between atoms: _196  and  _197
REMARK   89  A    between atoms: _199  and  _201
REMARK   90  A    between atoms: _201  and  _202
REMARK   91  A    between atoms: _201  and  _204
REMARK   92  A    between atoms: _204  and  _205
REMARK   93  A    between atoms: _208  and  _210
REMARK   94  A    between atoms: _210  and  _211
REMARK   95  A    between atoms: _213  and  _215
REMARK   96  A    between atoms: _215  and  _216
REMARK   97  A    between atoms: _215  and  _218
REMARK   98  A    between atoms: _218  and  _219
REMARK   99  A    between atoms: _219  and  _220
REMARK  100  A    between atoms: _222  and  _224
REMARK  101  A    between atoms: _224  and  _225
REMARK  102  A    between atoms: _224  and  _227
REMARK  103  A    between atoms: _227  and  _228
REMARK  104  A    between atoms: _231  and  _233
REMARK  105  A    between atoms: _233  and  _234
REMARK  106  A    between atoms: _237  and  _239
REMARK  107  A    between atoms: _239  and  _240
REMARK  108  A    between atoms: _239  and  _242
REMARK  109  A    between atoms: _242  and  _243
REMARK  110  A    between atoms: _246  and  _248
REMARK  111  A    between atoms: _248  and  _249
REMARK  112  A    between atoms: _248  and  _251
REMARK  113  A    between atoms: _251  and  _252
REMARK  114  A    between atoms: _255  and  _257
REMARK  115  A    between atoms: _257  and  _258
REMARK  116  A    between atoms: _257  and  _260
REMARK  117  A    between atoms: _260  and  _261
REMARK  118  A    between atoms: _266  and  _268
REMARK  119  A    between atoms: _268  and  _269
REMARK  120  A    between atoms: _268  and  _271
REMARK  121  A    between atoms: _271  and  _272
REMARK  122  A    between atoms: _277  and  _279
REMARK  123  A    between atoms: _279  and  _280
REMARK  124  A    between atoms: _279  and  _282
REMARK  125  A    between atoms: _282  and  _283
REMARK  126  A    between atoms: _286  and  _288
REMARK  127  A    between atoms: _288  and  _289
REMARK  128  A    between atoms: _291  and  _293
REMARK  129  A    between atoms: _293  and  _294
REMARK  130  A    between atoms: _293  and  _296
REMARK  131  A    between atoms: _296  and  _297
REMARK  132  A    between atoms: _300  and  _302
REMARK  133  A    between atoms: _302  and  _303
REMARK  134  A    between atoms: _302  and  _305
REMARK  135  A    between atoms: _305  and  _306
REMARK  136  A    between atoms: _309  and  _311
REMARK  137  A    between atoms: _311  and  _312
REMARK  138  A    between atoms: _315  and  _317
REMARK  139  A    between atoms: _317  and  _318
REMARK  140  A    between atoms: _320  and  _322
REMARK  141  A    between atoms: _322  and  _323
REMARK  142  A    between atoms: _322  and  _325
REMARK  143  A    between atoms: _325  and  _326
REMARK  144  A    between atoms: _332  and  _334
REMARK  145  A    between atoms: _334  and  _335
REMARK  146  A    between atoms: _337  and  _339
REMARK  147  A    between atoms: _339  and  _340
REMARK  148  A    between atoms: _339  and  _342
REMARK  149  A    between atoms: _345  and  _347
REMARK  150  A    between atoms: _347  and  _348
REMARK  151  A    between atoms: _350  and  _352
REMARK  152  A    between atoms: _352  and  _353
REMARK  153  A    between atoms: _352  and  _355
REMARK  154  A    between atoms: _355  and  _356
REMARK  155  A    between atoms: _362  and  _364
REMARK  156  A    between atoms: _364  and  _365
REMARK  157  A    between atoms: _364  and  _367
REMARK  158  A    between atoms: _367  and  _368
REMARK  159  A    between atoms: _373  and  _374
REMARK  160  A    between atoms: _376  and  _378
REMARK  161  A    between atoms: _378  and  _379
REMARK  162  A    between atoms: _382  and  _384
REMARK  163  A    between atoms: _384  and  _385
REMARK  164  A    between atoms: _384  and  _387
REMARK  165  A    between atoms: _390  and  _392
REMARK  166  A    between atoms: _392  and  _393
REMARK  167  A    between atoms: _392  and  _395
REMARK  168  A    between atoms: _398  and  _400
REMARK  169  A    between atoms: _400  and  _401
REMARK  170  A    between atoms: _400  and  _403
REMARK  171  A    between atoms: _403  and  _404
REMARK  172  A    between atoms: _407  and  _409
REMARK  173  A    between atoms: _409  and  _410
REMARK  174  A    between atoms: _409  and  _412
REMARK  175  A    between atoms: _412  and  _413
REMARK  176  A    between atoms: _416  and  _418
REMARK  177  A    between atoms: _418  and  _419
REMARK  178  A    between atoms: _418  and  _421
REMARK  179  A    between atoms: _421  and  _422
REMARK  180  A    between atoms: _422  and  _423
REMARK  181  A    between atoms: _423  and  _424
REMARK  182  A    between atoms: _424  and  _425
REMARK  183  A    between atoms: _429  and  _431
REMARK  184  A    between atoms: _431  and  _432
REMARK  185  A    between atoms: _431  and  _434
REMARK  186  A    between atoms: _434  and  _435
REMARK  187  A    between atoms: _440  and  _442
REMARK  188  A    between atoms: _442  and  _443
REMARK  189  A    between atoms: _445  and  _447
REMARK  190  A    between atoms: _447  and  _448
REMARK  191  A    between atoms: _447  and  _450
REMARK  192  A    between atoms: _450  and  _451
REMARK  193  A    between atoms: _454  and  _456
REMARK  194  A    between atoms: _456  and  _457
REMARK  195  A    between atoms: _456  and  _459
REMARK  196  A    between atoms: _459  and  _460
REMARK  197  A    between atoms: _460  and  _461
REMARK  198  A    between atoms: _461  and  _462
REMARK  199  A    between atoms: _462  and  _463
REMARK  200  A    between atoms: _467  and  _469
REMARK  201  A    between atoms: _469  and  _470
REMARK  202  A    between atoms: _469  and  _472
REMARK  203  A    between atoms: _475  and  _477
REMARK  204  A    between atoms: _477  and  _478
REMARK  205  A    between atoms: _477  and  _480
REMARK  206  A    between atoms: _480  and  _481
REMARK  207  A    between atoms: _484  and  _486
REMARK  208  A    between atoms: _486  and  _487
REMARK  209  A    between atoms: _486  and  _489
REMARK  210  A    between atoms: _489  and  _490
REMARK  211  A    between atoms: _493  and  _495
REMARK  212  A    between atoms: _495  and  _496
REMARK  213  A    between atoms: _495  and  _498
REMARK  214  A    between atoms: _498  and  _499
REMARK  215  A    between atoms: _502  and  _504
REMARK  216  A    between atoms: _504  and  _505
REMARK  217  A    between atoms: _504  and  _507
REMARK  218  A    between atoms: _507  and  _508
REMARK  219  A    between atoms: _508  and  _509
REMARK  220  A    between atoms: _509  and  _510
REMARK  221  A    between atoms: _510  and  _511
REMARK  222  A    between atoms: _515  and  _517
REMARK  223  A    between atoms: _517  and  _518
REMARK  224  A    between atoms: _517  and  _520
REMARK  225  A    between atoms: _520  and  _521
REMARK  226  A    between atoms: _526  and  _527
REMARK                            x       y       z     vdW  Elec       q    Type
REMARK                         _______ _______ _______ _____ _____    ______ ____
ROOT
ATOM      1  O   HOH     1      36.969   1.799  28.347  0.00  0.00    +0.000 OA
ENDROOT
TORSDOF 0
REMARK  Name = ../refined-set-2016/2uwd/2uwd_pocket.pdb
REMARK  226 active torsions:
REMARK  status: ('A' for Active; 'I' for Inactive)
REMARK    1  A    between atoms: _1  and  _3
REMARK    2  A    between atoms: _3  and  _4
REMARK    3  A    between atoms: _3  and  _6
REMARK    4  A    between atoms: _6  and  _7
REMARK    5  A    between atoms: _13  and  _15
REMARK    6  A    between atoms: _15  and  _16
REMARK    7  A    between atoms: _15  and  _18
REMARK    8  A    between atoms: _18  and  _19
REMARK    9  A    between atoms: _22  and  _24
REMARK   10  A    between atoms: _24  and  _25
REMARK   11  A    between atoms: _24  and  _27
REMARK   12  A    between atoms: _27  and  _28
REMARK   13  A    between atoms: _28  and  _29
REMARK   14  A    between atoms: _32  and  _34
REMARK   15  A    between atoms: _34  and  _35
REMARK   16  A    between atoms: _34  and  _37
REMARK   17  A    between atoms: _37  and  _38
REMARK   18  A    between atoms: _41  and  _43
REMARK   19  A    between atoms: _43  and  _44
REMARK   20  A    between atoms: _43  and  _46
REMARK   21  A    between atoms: _46  and  _47
REMARK   22  A    between atoms: _50  and  _52
REMARK   23  A    between atoms: _52  and  _53
REMARK   24  A    between atoms: _52  and  _55
REMARK   25  A    between atoms: _55  and  _56
REMARK   26  A    between atoms: _58  and  _60
REMARK   27  A    between atoms: _60  and  _61
REMARK   28  A    between atoms: _60  and  _63
REMARK   29  A    between atoms: _63  and  _64
REMARK   30  A    between atoms: _69  and  _71
REMARK   31  A    between atoms: _71  and  _72
REMARK   32  A    between atoms: _71  and  _74
REMARK   33  A    between atoms: _74  and  _75
REMARK   34  A    between atoms: _77  and  _79
REMARK   35  A    between atoms: _79  and  _80
REMARK   36  A    between atoms: _79  and  _82
REMARK   37  A    between atoms: _82  and  _83
REMARK   38  A    between atoms: _85  and  _87
REMARK   39  A    between atoms: _87  and  _88
REMARK   40  A    between atoms: _87  and  _90
REMARK   41  A    between atoms: _90  and  _91
REMARK   42  A    between atoms: _94  and  _96
REMARK   43  A    between atoms: _96  and  _97
REMARK   44  A    between atoms: _100  and  _102
REMARK   45  A    between atoms: _102  and  _103
REMARK   46  A    between atoms: _102  and  _105
REMARK   47  A    between atoms: _105  and  _106
REMARK   48  A    between atoms: _109  and  _111
REMARK   49  A    between atoms: _111  and  _112
REMARK   50  A    between atoms: _111  and  _114
REMARK   51  A    between atoms: _114  and  _115
REMARK   52  A    between atoms: _118  and  _120
REMARK   53  A    between atoms: _120  and  _121
REMARK   54  A    between atoms: _120  and  _123
REMARK   55  A    between atoms: _123  and  _124
REMARK   56  A    between atoms: _124  and  _125
REMARK   57  A    between atoms: _125  and  _126
REMARK   58  A    between atoms: _126  and  _127
REMARK   59  A    between atoms: _131  and  _133
REMARK   60  A    between atoms: _133  and  _134
REMARK   61  A    between atoms: _133  and  _136
REMARK   62  A    between atoms: _136  and  _137
REMARK   63  A    between atoms: _140  and  _142
REMARK   64  A    between atoms: _142  and  _143
REMARK   65  A    between atoms: _142  and  _145
REMARK   66  A    between atoms: _145  and  _146
REMARK   67  A    between atoms: _146  and  _147
REMARK   68  A    between atoms: _150  and  _152
REMARK   69  A    between atoms: _152  and  _153
REMARK   70  A    between atoms: _152  and  _155
REMARK   71  A    between atoms: _155  and  _156
REMARK   72  A    between atoms: _159  and  _161
REMARK   73  A    between atoms: _161  and  _162
REMARK   74  A    between atoms: _161  and  _164
REMARK   75  A    between atoms: _164  and  _165
REMARK   76  A    between atoms: _168  and  _170
REMARK   77  A    between atoms: _170  and  _171
REMARK   78  A    between atoms: _170  and  _173
REMARK   79  A    between atoms: _176  and  _178
REMARK   80  A    between atoms: _178  and  _179
REMARK   81  A    between atoms: _178  and  _181
REMARK   82  A    between atoms: _181  and  _182
REMARK   83  A    between atoms: _185  and  _187
REMARK   84  A    between atoms: _187  and  _188
REMARK   85  A    between atoms: _187  and  _190
REMARK   86  A    between atoms: _190  and  _191
REMARK   87  A    between atoms: _194  and  _196
REMARK   88  A    between atoms: _196  and  _197
REMARK   89  A    between atoms: _199  and  _201
REMARK   90  A    between atoms: _201  and  _202
REMARK   91  A    between atoms: _201  and  _204
REMARK   92  A    between atoms: _204  and  _205
REMARK   93  A    between atoms: _208  and  _210
REMARK   94  A    between atoms: _210  and  _211
REMARK   95  A    between atoms: _213  and  _215
REMARK   96  A    between atoms: _215  and  _216
REMARK   97  A    between atoms: _215  and  _218
REMARK   98  A    between atoms: _218  and  _219
REMARK   99  A    between atoms: _219  and  _220
REMARK  100  A    between atoms: _222  and  _224
REMARK  101  A    between atoms: _224  and  _225
REMARK  102  A    between atoms: _224  and  _227
REMARK  103  A    between atoms: _227  and  _228
REMARK  104  A    between atoms: _231  and  _233
REMARK  105  A    between atoms: _233  and  _234
REMARK  106  A    between atoms: _237  and  _239
REMARK  107  A    between atoms: _239  and  _240
REMARK  108  A    between atoms: _239  and  _242
REMARK  109  A    between atoms: _242  and  _243
REMARK  110  A    between atoms: _246  and  _248
REMARK  111  A    between atoms: _248  and  _249
REMARK  112  A    between atoms: _248  and  _251
REMARK  113  A    between atoms: _251  and  _252
REMARK  114  A    between atoms: _255  and  _257
REMARK  115  A    between atoms: _257  and  _258
REMARK  116  A    between atoms: _257  and  _260
REMARK  117  A    between atoms: _260  and  _261
REMARK  118  A    between atoms: _266  and  _268
REMARK  119  A    between atoms: _268  and  _269
REMARK  120  A    between atoms: _268  and  _271
REMARK  121  A    between atoms: _271  and  _272
REMARK  122  A    between atoms: _277  and  _279
REMARK  123  A    between atoms: _279  and  _280
REMARK  124  A    between atoms: _279  and  _282
REMARK  125  A    between atoms: _282  and  _283
REMARK  126  A    between atoms: _286  and  _288
REMARK  127  A    between atoms: _288  and  _289
REMARK  128  A    between atoms: _291  and  _293
REMARK  129  A    between atoms: _293  and  _294
REMARK  130  A    between atoms: _293  and  _296
REMARK  131  A    between atoms: _296  and  _297
REMARK  132  A    between atoms: _300  and  _302
REMARK  133  A    between atoms: _302  and  _303
REMARK  134  A    between atoms: _302  and  _305
REMARK  135  A    between atoms: _305  and  _306
REMARK  136  A    between atoms: _309  and  _311
REMARK  137  A    between atoms: _311  and  _312
REMARK  138  A    between atoms: _315  and  _317
REMARK  139  A    between atoms: _317  and  _318
REMARK  140  A    between atoms: _320  and  _322
REMARK  141  A    between atoms: _322  and  _323
REMARK  142  A    between atoms: _322  and  _325
REMARK  143  A    between atoms: _325  and  _326
REMARK  144  A    between atoms: _332  and  _334
REMARK  145  A    between atoms: _334  and  _335
REMARK  146  A    between atoms: _337  and  _339
REMARK  147  A    between atoms: _339  and  _340
REMARK  148  A    between atoms: _339  and  _342
REMARK  149  A    between atoms: _345  and  _347
REMARK  150  A    between atoms: _347  and  _348
REMARK  151  A    between atoms: _350  and  _352
REMARK  152  A    between atoms: _352  and  _353
REMARK  153  A    between atoms: _352  and  _355
REMARK  154  A    between atoms: _355  and  _356
REMARK  155  A    between atoms: _362  and  _364
REMARK  156  A    between atoms: _364  and  _365
REMARK  157  A    between atoms: _364  and  _367
REMARK  158  A    between atoms: _367  and  _368
REMARK  159  A    between atoms: _373  and  _374
REMARK  160  A    between atoms: _376  and  _378
REMARK  161  A    between atoms: _378  and  _379
REMARK  162  A    between atoms: _382  and  _384
REMARK  163  A    between atoms: _384  and  _385
REMARK  164  A    between atoms: _384  and  _387
REMARK  165  A    between atoms: _390  and  _392
REMARK  166  A    between atoms: _392  and  _393
REMARK  167  A    between atoms: _392  and  _395
REMARK  168  A    between atoms: _398  and  _400
REMARK  169  A    between atoms: _400  and  _401
REMARK  170  A    between atoms: _400  and  _403
REMARK  171  A    between atoms: _403  and  _404
REMARK  172  A    between atoms: _407  and  _409
REMARK  173  A    between atoms: _409  and  _410
REMARK  174  A    between atoms: _409  and  _412
REMARK  175  A    between atoms: _412  and  _413
REMARK  176  A    between atoms: _416  and  _418
REMARK  177  A    between atoms: _418  and  _419
REMARK  178  A    between atoms: _418  and  _421
REMARK  179  A    between atoms: _421  and  _422
REMARK  180  A    between atoms: _422  and  _423
REMARK  181  A    between atoms: _423  and  _424
REMARK  182  A    between atoms: _424  and  _425
REMARK  183  A    between atoms: _429  and  _431
REMARK  184  A    between atoms: _431  and  _432
REMARK  185  A    between atoms: _431  and  _434
REMARK  186  A    between atoms: _434  and  _435
REMARK  187  A    between atoms: _440  and  _442
REMARK  188  A    between atoms: _442  and  _443
REMARK  189  A    between atoms: _445  and  _447
REMARK  190  A    between atoms: _447  and  _448
REMARK  191  A    between atoms: _447  and  _450
REMARK  192  A    between atoms: _450  and  _451
REMARK  193  A    between atoms: _454  and  _456
REMARK  194  A    between atoms: _456  and  _457
REMARK  195  A    between atoms: _456  and  _459
REMARK  196  A    between atoms: _459  and  _460
REMARK  197  A    between atoms: _460  and  _461
REMARK  198  A    between atoms: _461  and  _462
REMARK  199  A    between atoms: _462  and  _463
REMARK  200  A    between atoms: _467  and  _469
REMARK  201  A    between atoms: _469  and  _470
REMARK  202  A    between atoms: _469  and  _472
REMARK  203  A    between atoms: _475  and  _477
REMARK  204  A    between atoms: _477  and  _478
REMARK  205  A    between atoms: _477  and  _480
REMARK  206  A    between atoms: _480  and  _481
REMARK  207  A    between atoms: _484  and  _486
REMARK  208  A    between atoms: _486  and  _487
REMARK  209  A    between atoms: _486  and  _489
REMARK  210  A    between atoms: _489  and  _490
REMARK  211  A    between atoms: _493  and  _495
REMARK  212  A    between atoms: _495  and  _496
REMARK  213  A    between atoms: _495  and  _498
REMARK  214  A    between atoms: _498  and  _499
REMARK  215  A    between atoms: _502  and  _504
REMARK  216  A    between atoms: _504  and  _505
REMARK  217  A    between atoms: _504  and  _507
REMARK  218  A    between atoms: _507  and  _508
REMARK  219  A    between atoms: _508  and  _509
REMARK  220  A    between atoms: _509  and  _510
REMARK  221  A    between atoms: _510  and  _511
REMARK  222  A    between atoms: _515  and  _517
REMARK  223  A    between atoms: _517  and  _518
REMARK  224  A    between atoms: _517  and  _520
REMARK  225  A    between atoms: _520  and  _521
REMARK  226  A    between atoms: _526  and  _527
REMARK                            x       y       z     vdW  Elec       q    Type
REMARK                         _______ _______ _______ _____ _____    ______ ____
ROOT
ATOM      1  O   HOH     1      37.292   1.803  33.255  0.00  0.00    +0.000 OA
ENDROOT
TORSDOF 0
REMARK  Name = ../refined-set-2016/2uwd/2uwd_pocket.pdb
REMARK  226 active torsions:
REMARK  status: ('A' for Active; 'I' for Inactive)
REMARK    1  A    between atoms: _1  and  _3
REMARK    2  A    between atoms: _3  and  _4
REMARK    3  A    between atoms: _3  and  _6
REMARK    4  A    between atoms: _6  and  _7
REMARK    5  A    between atoms: _13  and  _15
REMARK    6  A    between atoms: _15  and  _16
REMARK    7  A    between atoms: _15  and  _18
REMARK    8  A    between atoms: _18  and  _19
REMARK    9  A    between atoms: _22  and  _24
REMARK   10  A    between atoms: _24  and  _25
REMARK   11  A    between atoms: _24  and  _27
REMARK   12  A    between atoms: _27  and  _28
REMARK   13  A    between atoms: _28  and  _29
REMARK   14  A    between atoms: _32  and  _34
REMARK   15  A    between atoms: _34  and  _35
REMARK   16  A    between atoms: _34  and  _37
REMARK   17  A    between atoms: _37  and  _38
REMARK   18  A    between atoms: _41  and  _43
REMARK   19  A    between atoms: _43  and  _44
REMARK   20  A    between atoms: _43  and  _46
REMARK   21  A    between atoms: _46  and  _47
REMARK   22  A    between atoms: _50  and  _52
REMARK   23  A    between atoms: _52  and  _53
REMARK   24  A    between atoms: _52  and  _55
REMARK   25  A    between atoms: _55  and  _56
REMARK   26  A    between atoms: _58  and  _60
REMARK   27  A    between atoms: _60  and  _61
REMARK   28  A    between atoms: _60  and  _63
REMARK   29  A    between atoms: _63  and  _64
REMARK   30  A    between atoms: _69  and  _71
REMARK   31  A    between atoms: _71  and  _72
REMARK   32  A    between atoms: _71  and  _74
REMARK   33  A    between atoms: _74  and  _75
REMARK   34  A    between atoms: _77  and  _79
REMARK   35  A    between atoms: _79  and  _80
REMARK   36  A    between atoms: _79  and  _82
REMARK   37  A    between atoms: _82  and  _83
REMARK   38  A    between atoms: _85  and  _87
REMARK   39  A    between atoms: _87  and  _88
REMARK   40  A    between atoms: _87  and  _90
REMARK   41  A    between atoms: _90  and  _91
REMARK   42  A    between atoms: _94  and  _96
REMARK   43  A    between atoms: _96  and  _97
REMARK   44  A    between atoms: _100  and  _102
REMARK   45  A    between atoms: _102  and  _103
REMARK   46  A    between atoms: _102  and  _105
REMARK   47  A    between atoms: _105  and  _106
REMARK   48  A    between atoms: _109  and  _111
REMARK   49  A    between atoms: _111  and  _112
REMARK   50  A    between atoms: _111  and  _114
REMARK   51  A    between atoms: _114  and  _115
REMARK   52  A    between atoms: _118  and  _120
REMARK   53  A    between atoms: _120  and  _121
REMARK   54  A    between atoms: _120  and  _123
REMARK   55  A    between atoms: _123  and  _124
REMARK   56  A    between atoms: _124  and  _125
REMARK   57  A    between atoms: _125  and  _126
REMARK   58  A    between atoms: _126  and  _127
REMARK   59  A    between atoms: _131  and  _133
REMARK   60  A    between atoms: _133  and  _134
REMARK   61  A    between atoms: _133  and  _136
REMARK   62  A    between atoms: _136  and  _137
REMARK   63  A    between atoms: _140  and  _142
REMARK   64  A    between atoms: _142  and  _143
REMARK   65  A    between atoms: _142  and  _145
REMARK   66  A    between atoms: _145  and  _146
REMARK   67  A    between atoms: _146  and  _147
REMARK   68  A    between atoms: _150  and  _152
REMARK   69  A    between atoms: _152  and  _153
REMARK   70  A    between atoms: _152  and  _155
REMARK   71  A    between atoms: _155  and  _156
REMARK   72  A    between atoms: _159  and  _161
REMARK   73  A    between atoms: _161  and  _162
REMARK   74  A    between atoms: _161  and  _164
REMARK   75  A    between atoms: _164  and  _165
REMARK   76  A    between atoms: _168  and  _170
REMARK   77  A    between atoms: _170  and  _171
REMARK   78  A    between atoms: _170  and  _173
REMARK   79  A    between atoms: _176  and  _178
REMARK   80  A    between atoms: _178  and  _179
REMARK   81  A    between atoms: _178  and  _181
REMARK   82  A    between atoms: _181  and  _182
REMARK   83  A    between atoms: _185  and  _187
REMARK   84  A    between atoms: _187  and  _188
REMARK   85  A    between atoms: _187  and  _190
REMARK   86  A    between atoms: _190  and  _191
REMARK   87  A    between atoms: _194  and  _196
REMARK   88  A    between atoms: _196  and  _197
REMARK   89  A    between atoms: _199  and  _201
REMARK   90  A    between atoms: _201  and  _202
REMARK   91  A    between atoms: _201  and  _204
REMARK   92  A    between atoms: _204  and  _205
REMARK   93  A    between atoms: _208  and  _210
REMARK   94  A    between atoms: _210  and  _211
REMARK   95  A    between atoms: _213  and  _215
REMARK   96  A    between atoms: _215  and  _216
REMARK   97  A    between atoms: _215  and  _218
REMARK   98  A    between atoms: _218  and  _219
REMARK   99  A    between atoms: _219  and  _220
REMARK  100  A    between atoms: _222  and  _224
REMARK  101  A    between atoms: _224  and  _225
REMARK  102  A    between atoms: _224  and  _227
REMARK  103  A    between atoms: _227  and  _228
REMARK  104  A    between atoms: _231  and  _233
REMARK  105  A    between atoms: _233  and  _234
REMARK  106  A    between atoms: _237  and  _239
REMARK  107  A    between atoms: _239  and  _240
REMARK  108  A    between atoms: _239  and  _242
REMARK  109  A    between atoms: _242  and  _243
REMARK  110  A    between atoms: _246  and  _248
REMARK  111  A    between atoms: _248  and  _249
REMARK  112  A    between atoms: _248  and  _251
REMARK  113  A    between atoms: _251  and  _252
REMARK  114  A    between atoms: _255  and  _257
REMARK  115  A    between atoms: _257  and  _258
REMARK  116  A    between atoms: _257  and  _260
REMARK  117  A    between atoms: _260  and  _261
REMARK  118  A    between atoms: _266  and  _268
REMARK  119  A    between atoms: _268  and  _269
REMARK  120  A    between atoms: _268  and  _271
REMARK  121  A    between atoms: _271  and  _272
REMARK  122  A    between atoms: _277  and  _279
REMARK  123  A    between atoms: _279  and  _280
REMARK  124  A    between atoms: _279  and  _282
REMARK  125  A    between atoms: _282  and  _283
REMARK  126  A    between atoms: _286  and  _288
REMARK  127  A    between atoms: _288  and  _289
REMARK  128  A    between atoms: _291  and  _293
REMARK  129  A    between atoms: _293  and  _294
REMARK  130  A    between atoms: _293  and  _296
REMARK  131  A    between atoms: _296  and  _297
REMARK  132  A    between atoms: _300  and  _302
REMARK  133  A    between atoms: _302  and  _303
REMARK  134  A    between atoms: _302  and  _305
REMARK  135  A    between atoms: _305  and  _306
REMARK  136  A    between atoms: _309  and  _311
REMARK  137  A    between atoms: _311  and  _312
REMARK  138  A    between atoms: _315  and  _317
REMARK  139  A    between atoms: _317  and  _318
REMARK  140  A    between atoms: _320  and  _322
REMARK  141  A    between atoms: _322  and  _323
REMARK  142  A    between atoms: _322  and  _325
REMARK  143  A    between atoms: _325  and  _326
REMARK  144  A    between atoms: _332  and  _334
REMARK  145  A    between atoms: _334  and  _335
REMARK  146  A    between atoms: _337  and  _339
REMARK  147  A    between atoms: _339  and  _340
REMARK  148  A    between atoms: _339  and  _342
REMARK  149  A    between atoms: _345  and  _347
REMARK  150  A    between atoms: _347  and  _348
REMARK  151  A    between atoms: _350  and  _352
REMARK  152  A    between atoms: _352  and  _353
REMARK  153  A    between atoms: _352  and  _355
REMARK  154  A    between atoms: _355  and  _356
REMARK  155  A    between atoms: _362  and  _364
REMARK  156  A    between atoms: _364  and  _365
REMARK  157  A    between atoms: _364  and  _367
REMARK  158  A    between atoms: _367  and  _368
REMARK  159  A    between atoms: _373  and  _374
REMARK  160  A    between atoms: _376  and  _378
REMARK  161  A    between atoms: _378  and  _379
REMARK  162  A    between atoms: _382  and  _384
REMARK  163  A    between atoms: _384  and  _385
REMARK  164  A    between atoms: _384  and  _387
REMARK  165  A    between atoms: _390  and  _392
REMARK  166  A    between atoms: _392  and  _393
REMARK  167  A    between atoms: _392  and  _395
REMARK  168  A    between atoms: _398  and  _400
REMARK  169  A    between atoms: _400  and  _401
REMARK  170  A    between atoms: _400  and  _403
REMARK  171  A    between atoms: _403  and  _404
REMARK  172  A    between atoms: _407  and  _409
REMARK  173  A    between atoms: _409  and  _410
REMARK  174  A    between atoms: _409  and  _412
REMARK  175  A    between atoms: _412  and  _413
REMARK  176  A    between atoms: _416  and  _418
REMARK  177  A    between atoms: _418  and  _419
REMARK  178  A    between atoms: _418  and  _421
REMARK  179  A    between atoms: _421  and  _422
REMARK  180  A    between atoms: _422  and  _423
REMARK  181  A    between atoms: _423  and  _424
REMARK  182  A    between atoms: _424  and  _425
REMARK  183  A    between atoms: _429  and  _431
REMARK  184  A    between atoms: _431  and  _432
REMARK  185  A    between atoms: _431  and  _434
REMARK  186  A    between atoms: _434  and  _435
REMARK  187  A    between atoms: _440  and  _442
REMARK  188  A    between atoms: _442  and  _443
REMARK  189  A    between atoms: _445  and  _447
REMARK  190  A    between atoms: _447  and  _448
REMARK  191  A    between atoms: _447  and  _450
REMARK  192  A    between atoms: _450  and  _451
REMARK  193  A    between atoms: _454  and  _456
REMARK  194  A    between atoms: _456  and  _457
REMARK  195  A    between atoms: _456  and  _459
REMARK  196  A    between atoms: _459  and  _460
REMARK  197  A    between atoms: _460  and  _461
REMARK  198  A    between atoms: _461  and  _462
REMARK  199  A    between atoms: _462  and  _463
REMARK  200  A    between atoms: _467  and  _469
REMARK  201  A    between atoms: _469  and  _470
REMARK  202  A    between atoms: _469  and  _472
REMARK  203  A    between atoms: _475  and  _477
REMARK  204  A    between atoms: _477  and  _478
REMARK  205  A    between atoms: _477  and  _480
REMARK  206  A    between atoms: _480  and  _481
REMARK  207  A    between atoms: _484  and  _486
REMARK  208  A    between atoms: _486  and  _487
REMARK  209  A    between atoms: _486  and  _489
REMARK  210  A    between atoms: _489  and  _490
REMARK  211  A    between atoms: _493  and  _495
REMARK  212  A    between atoms: _495  and  _496
REMARK  213  A    between atoms: _495  and  _498
REMARK  214  A    between atoms: _498  and  _499
REMARK  215  A    between atoms: _502  and  _504
REMARK  216  A    between atoms: _504  and  _505
REMARK  217  A    between atoms: _504  and  _507
REMARK  218  A    between atoms: _507  and  _508
REMARK  219  A    between atoms: _508  and  _509
REMARK  220  A    between atoms: _509  and  _510
REMARK  221  A    between atoms: _510  and  _511
REMARK  222  A    between atoms: _515  and  _517
REMARK  223  A    between atoms: _517  and  _518
REMARK  224  A    between atoms: _517  and  _520
REMARK  225  A    between atoms: _520  and  _521
REMARK  226  A    between atoms: _526  and  _527
REMARK                            x       y       z     vdW  Elec       q    Type
REMARK                         _______ _______ _______ _____ _____    ______ ____
ROOT
ATOM      1  O   HOH     1      39.202   3.588  34.405  0.00  0.00    +0.000 OA
ENDROOT
TORSDOF 0
REMARK  Name = ../refined-set-2016/2uwd/2uwd_pocket.pdb
REMARK  226 active torsions:
REMARK  status: ('A' for Active; 'I' for Inactive)
REMARK    1  A    between atoms: _1  and  _3
REMARK    2  A    between atoms: _3  and  _4
REMARK    3  A    between atoms: _3  and  _6
REMARK    4  A    between atoms: _6  and  _7
REMARK    5  A    between atoms: _13  and  _15
REMARK    6  A    between atoms: _15  and  _16
REMARK    7  A    between atoms: _15  and  _18
REMARK    8  A    between atoms: _18  and  _19
REMARK    9  A    between atoms: _22  and  _24
REMARK   10  A    between atoms: _24  and  _25
REMARK   11  A    between atoms: _24  and  _27
REMARK   12  A    between atoms: _27  and  _28
REMARK   13  A    between atoms: _28  and  _29
REMARK   14  A    between atoms: _32  and  _34
REMARK   15  A    between atoms: _34  and  _35
REMARK   16  A    between atoms: _34  and  _37
REMARK   17  A    between atoms: _37  and  _38
REMARK   18  A    between atoms: _41  and  _43
REMARK   19  A    between atoms: _43  and  _44
REMARK   20  A    between atoms: _43  and  _46
REMARK   21  A    between atoms: _46  and  _47
REMARK   22  A    between atoms: _50  and  _52
REMARK   23  A    between atoms: _52  and  _53
REMARK   24  A    between atoms: _52  and  _55
REMARK   25  A    between atoms: _55  and  _56
REMARK   26  A    between atoms: _58  and  _60
REMARK   27  A    between atoms: _60  and  _61
REMARK   28  A    between atoms: _60  and  _63
REMARK   29  A    between atoms: _63  and  _64
REMARK   30  A    between atoms: _69  and  _71
REMARK   31  A    between atoms: _71  and  _72
REMARK   32  A    between atoms: _71  and  _74
REMARK   33  A    between atoms: _74  and  _75
REMARK   34  A    between atoms: _77  and  _79
REMARK   35  A    between atoms: _79  and  _80
REMARK   36  A    between atoms: _79  and  _82
REMARK   37  A    between atoms: _82  and  _83
REMARK   38  A    between atoms: _85  and  _87
REMARK   39  A    between atoms: _87  and  _88
REMARK   40  A    between atoms: _87  and  _90
REMARK   41  A    between atoms: _90  and  _91
REMARK   42  A    between atoms: _94  and  _96
REMARK   43  A    between atoms: _96  and  _97
REMARK   44  A    between atoms: _100  and  _102
REMARK   45  A    between atoms: _102  and  _103
REMARK   46  A    between atoms: _102  and  _105
REMARK   47  A    between atoms: _105  and  _106
REMARK   48  A    between atoms: _109  and  _111
REMARK   49  A    between atoms: _111  and  _112
REMARK   50  A    between atoms: _111  and  _114
REMARK   51  A    between atoms: _114  and  _115
REMARK   52  A    between atoms: _118  and  _120
REMARK   53  A    between atoms: _120  and  _121
REMARK   54  A    between atoms: _120  and  _123
REMARK   55  A    between atoms: _123  and  _124
REMARK   56  A    between atoms: _124  and  _125
REMARK   57  A    between atoms: _125  and  _126
REMARK   58  A    between atoms: _126  and  _127
REMARK   59  A    between atoms: _131  and  _133
REMARK   60  A    between atoms: _133  and  _134
REMARK   61  A    between atoms: _133  and  _136
REMARK   62  A    between atoms: _136  and  _137
REMARK   63  A    between atoms: _140  and  _142
REMARK   64  A    between atoms: _142  and  _143
REMARK   65  A    between atoms: _142  and  _145
REMARK   66  A    between atoms: _145  and  _146
REMARK   67  A    between atoms: _146  and  _147
REMARK   68  A    between atoms: _150  and  _152
REMARK   69  A    between atoms: _152  and  _153
REMARK   70  A    between atoms: _152  and  _155
REMARK   71  A    between atoms: _155  and  _156
REMARK   72  A    between atoms: _159  and  _161
REMARK   73  A    between atoms: _161  and  _162
REMARK   74  A    between atoms: _161  and  _164
REMARK   75  A    between atoms: _164  and  _165
REMARK   76  A    between atoms: _168  and  _170
REMARK   77  A    between atoms: _170  and  _171
REMARK   78  A    between atoms: _170  and  _173
REMARK   79  A    between atoms: _176  and  _178
REMARK   80  A    between atoms: _178  and  _179
REMARK   81  A    between atoms: _178  and  _181
REMARK   82  A    between atoms: _181  and  _182
REMARK   83  A    between atoms: _185  and  _187
REMARK   84  A    between atoms: _187  and  _188
REMARK   85  A    between atoms: _187  and  _190
REMARK   86  A    between atoms: _190  and  _191
REMARK   87  A    between atoms: _194  and  _196
REMARK   88  A    between atoms: _196  and  _197
REMARK   89  A    between atoms: _199  and  _201
REMARK   90  A    between atoms: _201  and  _202
REMARK   91  A    between atoms: _201  and  _204
REMARK   92  A    between atoms: _204  and  _205
REMARK   93  A    between atoms: _208  and  _210
REMARK   94  A    between atoms: _210  and  _211
REMARK   95  A    between atoms: _213  and  _215
REMARK   96  A    between atoms: _215  and  _216
REMARK   97  A    between atoms: _215  and  _218
REMARK   98  A    between atoms: _218  and  _219
REMARK   99  A    between atoms: _219  and  _220
REMARK  100  A    between atoms: _222  and  _224
REMARK  101  A    between atoms: _224  and  _225
REMARK  102  A    between atoms: _224  and  _227
REMARK  103  A    between atoms: _227  and  _228
REMARK  104  A    between atoms: _231  and  _233
REMARK  105  A    between atoms: _233  and  _234
REMARK  106  A    between atoms: _237  and  _239
REMARK  107  A    between atoms: _239  and  _240
REMARK  108  A    between atoms: _239  and  _242
REMARK  109  A    between atoms: _242  and  _243
REMARK  110  A    between atoms: _246  and  _248
REMARK  111  A    between atoms: _248  and  _249
REMARK  112  A    between atoms: _248  and  _251
REMARK  113  A    between atoms: _251  and  _252
REMARK  114  A    between atoms: _255  and  _257
REMARK  115  A    between atoms: _257  and  _258
REMARK  116  A    between atoms: _257  and  _260
REMARK  117  A    between atoms: _260  and  _261
REMARK  118  A    between atoms: _266  and  _268
REMARK  119  A    between atoms: _268  and  _269
REMARK  120  A    between atoms: _268  and  _271
REMARK  121  A    between atoms: _271  and  _272
REMARK  122  A    between atoms: _277  and  _279
REMARK  123  A    between atoms: _279  and  _280
REMARK  124  A    between atoms: _279  and  _282
REMARK  125  A    between atoms: _282  and  _283
REMARK  126  A    between atoms: _286  and  _288
REMARK  127  A    between atoms: _288  and  _289
REMARK  128  A    between atoms: _291  and  _293
REMARK  129  A    between atoms: _293  and  _294
REMARK  130  A    between atoms: _293  and  _296
REMARK  131  A    between atoms: _296  and  _297
REMARK  132  A    between atoms: _300  and  _302
REMARK  133  A    between atoms: _302  and  _303
REMARK  134  A    between atoms: _302  and  _305
REMARK  135  A    between atoms: _305  and  _306
REMARK  136  A    between atoms: _309  and  _311
REMARK  137  A    between atoms: _311  and  _312
REMARK  138  A    between atoms: _315  and  _317
REMARK  139  A    between atoms: _317  and  _318
REMARK  140  A    between atoms: _320  and  _322
REMARK  141  A    between atoms: _322  and  _323
REMARK  142  A    between atoms: _322  and  _325
REMARK  143  A    between atoms: _325  and  _326
REMARK  144  A    between atoms: _332  and  _334
REMARK  145  A    between atoms: _334  and  _335
REMARK  146  A    between atoms: _337  and  _339
REMARK  147  A    between atoms: _339  and  _340
REMARK  148  A    between atoms: _339  and  _342
REMARK  149  A    between atoms: _345  and  _347
REMARK  150  A    between atoms: _347  and  _348
REMARK  151  A    between atoms: _350  and  _352
REMARK  152  A    between atoms: _352  and  _353
REMARK  153  A    between atoms: _352  and  _355
REMARK  154  A    between atoms: _355  and  _356
REMARK  155  A    between atoms: _362  and  _364
REMARK  156  A    between atoms: _364  and  _365
REMARK  157  A    between atoms: _364  and  _367
REMARK  158  A    between atoms: _367  and  _368
REMARK  159  A    between atoms: _373  and  _374
REMARK  160  A    between atoms: _376  and  _378
REMARK  161  A    between atoms: _378  and  _379
REMARK  162  A    between atoms: _382  and  _384
REMARK  163  A    between atoms: _384  and  _385
REMARK  164  A    between atoms: _384  and  _387
REMARK  165  A    between atoms: _390  and  _392
REMARK  166  A    between atoms: _392  and  _393
REMARK  167  A    between atoms: _392  and  _395
REMARK  168  A    between atoms: _398  and  _400
REMARK  169  A    between atoms: _400  and  _401
REMARK  170  A    between atoms: _400  and  _403
REMARK  171  A    between atoms: _403  and  _404
REMARK  172  A    between atoms: _407  and  _409
REMARK  173  A    between atoms: _409  and  _410
REMARK  174  A    between atoms: _409  and  _412
REMARK  175  A    between atoms: _412  and  _413
REMARK  176  A    between atoms: _416  and  _418
REMARK  177  A    between atoms: _418  and  _419
REMARK  178  A    between atoms: _418  and  _421
REMARK  179  A    between atoms: _421  and  _422
REMARK  180  A    between atoms: _422  and  _423
REMARK  181  A    between atoms: _423  and  _424
REMARK  182  A    between atoms: _424  and  _425
REMARK  183  A    between atoms: _429  and  _431
REMARK  184  A    between atoms: _431  and  _432
REMARK  185  A    between atoms: _431  and  _434
REMARK  186  A    between atoms: _434  and  _435
REMARK  187  A    between atoms: _440  and  _442
REMARK  188  A    between atoms: _442  and  _443
REMARK  189  A    between atoms: _445  and  _447
REMARK  190  A    between atoms: _447  and  _448
REMARK  191  A    between atoms: _447  and  _450
REMARK  192  A    between atoms: _450  and  _451
REMARK  193  A    between atoms: _454  and  _456
REMARK  194  A    between atoms: _456  and  _457
REMARK  195  A    between atoms: _456  and  _459
REMARK  196  A    between atoms: _459  and  _460
REMARK  197  A    between atoms: _460  and  _461
REMARK  198  A    between atoms: _461  and  _462
REMARK  199  A    between atoms: _462  and  _463
REMARK  200  A    between atoms: _467  and  _469
REMARK  201  A    between atoms: _469  and  _470
REMARK  202  A    between atoms: _469  and  _472
REMARK  203  A    between atoms: _475  and  _477
REMARK  204  A    between atoms: _477  and  _478
REMARK  205  A    between atoms: _477  and  _480
REMARK  206  A    between atoms: _480  and  _481
REMARK  207  A    between atoms: _484  and  _486
REMARK  208  A    between atoms: _486  and  _487
REMARK  209  A    between atoms: _486  and  _489
REMARK  210  A    between atoms: _489  and  _490
REMARK  211  A    between atoms: _493  and  _495
REMARK  212  A    between atoms: _495  and  _496
REMARK  213  A    between atoms: _495  and  _498
REMARK  214  A    between atoms: _498  and  _499
REMARK  215  A    between atoms: _502  and  _504
REMARK  216  A    between atoms: _504  and  _505
REMARK  217  A    between atoms: _504  and  _507
REMARK  218  A    between atoms: _507  and  _508
REMARK  219  A    between atoms: _508  and  _509
REMARK  220  A    between atoms: _509  and  _510
REMARK  221  A    between atoms: _510  and  _511
REMARK  222  A    between atoms: _515  and  _517
REMARK  223  A    between atoms: _517  and  _518
REMARK  224  A    between atoms: _517  and  _520
REMARK  225  A    between atoms: _520  and  _521
REMARK  226  A    between atoms: _526  and  _527
REMARK                            x       y       z     vdW  Elec       q    Type
REMARK                         _______ _______ _______ _____ _____    ______ ____
ROOT
ATOM      1  O   HOH     1      35.722  -1.056  24.600  0.00  0.00    +0.000 OA
ENDROOT
TORSDOF 0
REMARK  Name = ../refined-set-2016/2uwd/2uwd_pocket.pdb
REMARK  226 active torsions:
REMARK  status: ('A' for Active; 'I' for Inactive)
REMARK    1  A    between atoms: _1  and  _3
REMARK    2  A    between atoms: _3  and  _4
REMARK    3  A    between atoms: _3  and  _6
REMARK    4  A    between atoms: _6  and  _7
REMARK    5  A    between atoms: _13  and  _15
REMARK    6  A    between atoms: _15  and  _16
REMARK    7  A    between atoms: _15  and  _18
REMARK    8  A    between atoms: _18  and  _19
REMARK    9  A    between atoms: _22  and  _24
REMARK   10  A    between atoms: _24  and  _25
REMARK   11  A    between atoms: _24  and  _27
REMARK   12  A    between atoms: _27  and  _28
REMARK   13  A    between atoms: _28  and  _29
REMARK   14  A    between atoms: _32  and  _34
REMARK   15  A    between atoms: _34  and  _35
REMARK   16  A    between atoms: _34  and  _37
REMARK   17  A    between atoms: _37  and  _38
REMARK   18  A    between atoms: _41  and  _43
REMARK   19  A    between atoms: _43  and  _44
REMARK   20  A    between atoms: _43  and  _46
REMARK   21  A    between atoms: _46  and  _47
REMARK   22  A    between atoms: _50  and  _52
REMARK   23  A    between atoms: _52  and  _53
REMARK   24  A    between atoms: _52  and  _55
REMARK   25  A    between atoms: _55  and  _56
REMARK   26  A    between atoms: _58  and  _60
REMARK   27  A    between atoms: _60  and  _61
REMARK   28  A    between atoms: _60  and  _63
REMARK   29  A    between atoms: _63  and  _64
REMARK   30  A    between atoms: _69  and  _71
REMARK   31  A    between atoms: _71  and  _72
REMARK   32  A    between atoms: _71  and  _74
REMARK   33  A    between atoms: _74  and  _75
REMARK   34  A    between atoms: _77  and  _79
REMARK   35  A    between atoms: _79  and  _80
REMARK   36  A    between atoms: _79  and  _82
REMARK   37  A    between atoms: _82  and  _83
REMARK   38  A    between atoms: _85  and  _87
REMARK   39  A    between atoms: _87  and  _88
REMARK   40  A    between atoms: _87  and  _90
REMARK   41  A    between atoms: _90  and  _91
REMARK   42  A    between atoms: _94  and  _96
REMARK   43  A    between atoms: _96  and  _97
REMARK   44  A    between atoms: _100  and  _102
REMARK   45  A    between atoms: _102  and  _103
REMARK   46  A    between atoms: _102  and  _105
REMARK   47  A    between atoms: _105  and  _106
REMARK   48  A    between atoms: _109  and  _111
REMARK   49  A    between atoms: _111  and  _112
REMARK   50  A    between atoms: _111  and  _114
REMARK   51  A    between atoms: _114  and  _115
REMARK   52  A    between atoms: _118  and  _120
REMARK   53  A    between atoms: _120  and  _121
REMARK   54  A    between atoms: _120  and  _123
REMARK   55  A    between atoms: _123  and  _124
REMARK   56  A    between atoms: _124  and  _125
REMARK   57  A    between atoms: _125  and  _126
REMARK   58  A    between atoms: _126  and  _127
REMARK   59  A    between atoms: _131  and  _133
REMARK   60  A    between atoms: _133  and  _134
REMARK   61  A    between atoms: _133  and  _136
REMARK   62  A    between atoms: _136  and  _137
REMARK   63  A    between atoms: _140  and  _142
REMARK   64  A    between atoms: _142  and  _143
REMARK   65  A    between atoms: _142  and  _145
REMARK   66  A    between atoms: _145  and  _146
REMARK   67  A    between atoms: _146  and  _147
REMARK   68  A    between atoms: _150  and  _152
REMARK   69  A    between atoms: _152  and  _153
REMARK   70  A    between atoms: _152  and  _155
REMARK   71  A    between atoms: _155  and  _156
REMARK   72  A    between atoms: _159  and  _161
REMARK   73  A    between atoms: _161  and  _162
REMARK   74  A    between atoms: _161  and  _164
REMARK   75  A    between atoms: _164  and  _165
REMARK   76  A    between atoms: _168  and  _170
REMARK   77  A    between atoms: _170  and  _171
REMARK   78  A    between atoms: _170  and  _173
REMARK   79  A    between atoms: _176  and  _178
REMARK   80  A    between atoms: _178  and  _179
REMARK   81  A    between atoms: _178  and  _181
REMARK   82  A    between atoms: _181  and  _182
REMARK   83  A    between atoms: _185  and  _187
REMARK   84  A    between atoms: _187  and  _188
REMARK   85  A    between atoms: _187  and  _190
REMARK   86  A    between atoms: _190  and  _191
REMARK   87  A    between atoms: _194  and  _196
REMARK   88  A    between atoms: _196  and  _197
REMARK   89  A    between atoms: _199  and  _201
REMARK   90  A    between atoms: _201  and  _202
REMARK   91  A    between atoms: _201  and  _204
REMARK   92  A    between atoms: _204  and  _205
REMARK   93  A    between atoms: _208  and  _210
REMARK   94  A    between atoms: _210  and  _211
REMARK   95  A    between atoms: _213  and  _215
REMARK   96  A    between atoms: _215  and  _216
REMARK   97  A    between atoms: _215  and  _218
REMARK   98  A    between atoms: _218  and  _219
REMARK   99  A    between atoms: _219  and  _220
REMARK  100  A    between atoms: _222  and  _224
REMARK  101  A    between atoms: _224  and  _225
REMARK  102  A    between atoms: _224  and  _227
REMARK  103  A    between atoms: _227  and  _228
REMARK  104  A    between atoms: _231  and  _233
REMARK  105  A    between atoms: _233  and  _234
REMARK  106  A    between atoms: _237  and  _239
REMARK  107  A    between atoms: _239  and  _240
REMARK  108  A    between atoms: _239  and  _242
REMARK  109  A    between atoms: _242  and  _243
REMARK  110  A    between atoms: _246  and  _248
REMARK  111  A    between atoms: _248  and  _249
REMARK  112  A    between atoms: _248  and  _251
REMARK  113  A    between atoms: _251  and  _252
REMARK  114  A    between atoms: _255  and  _257
REMARK  115  A    between atoms: _257  and  _258
REMARK  116  A    between atoms: _257  and  _260
REMARK  117  A    between atoms: _260  and  _261
REMARK  118  A    between atoms: _266  and  _268
REMARK  119  A    between atoms: _268  and  _269
REMARK  120  A    between atoms: _268  and  _271
REMARK  121  A    between atoms: _271  and  _272
REMARK  122  A    between atoms: _277  and  _279
REMARK  123  A    between atoms: _279  and  _280
REMARK  124  A    between atoms: _279  and  _282
REMARK  125  A    between atoms: _282  and  _283
REMARK  126  A    between atoms: _286  and  _288
REMARK  127  A    between atoms: _288  and  _289
REMARK  128  A    between atoms: _291  and  _293
REMARK  129  A    between atoms: _293  and  _294
REMARK  130  A    between atoms: _293  and  _296
REMARK  131  A    between atoms: _296  and  _297
REMARK  132  A    between atoms: _300  and  _302
REMARK  133  A    between atoms: _302  and  _303
REMARK  134  A    between atoms: _302  and  _305
REMARK  135  A    between atoms: _305  and  _306
REMARK  136  A    between atoms: _309  and  _311
REMARK  137  A    between atoms: _311  and  _312
REMARK  138  A    between atoms: _315  and  _317
REMARK  139  A    between atoms: _317  and  _318
REMARK  140  A    between atoms: _320  and  _322
REMARK  141  A    between atoms: _322  and  _323
REMARK  142  A    between atoms: _322  and  _325
REMARK  143  A    between atoms: _325  and  _326
REMARK  144  A    between atoms: _332  and  _334
REMARK  145  A    between atoms: _334  and  _335
REMARK  146  A    between atoms: _337  and  _339
REMARK  147  A    between atoms: _339  and  _340
REMARK  148  A    between atoms: _339  and  _342
REMARK  149  A    between atoms: _345  and  _347
REMARK  150  A    between atoms: _347  and  _348
REMARK  151  A    between atoms: _350  and  _352
REMARK  152  A    between atoms: _352  and  _353
REMARK  153  A    between atoms: _352  and  _355
REMARK  154  A    between atoms: _355  and  _356
REMARK  155  A    between atoms: _362  and  _364
REMARK  156  A    between atoms: _364  and  _365
REMARK  157  A    between atoms: _364  and  _367
REMARK  158  A    between atoms: _367  and  _368
REMARK  159  A    between atoms: _373  and  _374
REMARK  160  A    between atoms: _376  and  _378
REMARK  161  A    between atoms: _378  and  _379
REMARK  162  A    between atoms: _382  and  _384
REMARK  163  A    between atoms: _384  and  _385
REMARK  164  A    between atoms: _384  and  _387
REMARK  165  A    between atoms: _390  and  _392
REMARK  166  A    between atoms: _392  and  _393
REMARK  167  A    between atoms: _392  and  _395
REMARK  168  A    between atoms: _398  and  _400
REMARK  169  A    between atoms: _400  and  _401
REMARK  170  A    between atoms: _400  and  _403
REMARK  171  A    between atoms: _403  and  _404
REMARK  172  A    between atoms: _407  and  _409
REMARK  173  A    between atoms: _409  and  _410
REMARK  174  A    between atoms: _409  and  _412
REMARK  175  A    between atoms: _412  and  _413
REMARK  176  A    between atoms: _416  and  _418
REMARK  177  A    between atoms: _418  and  _419
REMARK  178  A    between atoms: _418  and  _421
REMARK  179  A    between atoms: _421  and  _422
REMARK  180  A    between atoms: _422  and  _423
REMARK  181  A    between atoms: _423  and  _424
REMARK  182  A    between atoms: _424  and  _425
REMARK  183  A    between atoms: _429  and  _431
REMARK  184  A    between atoms: _431  and  _432
REMARK  185  A    between atoms: _431  and  _434
REMARK  186  A    between atoms: _434  and  _435
REMARK  187  A    between atoms: _440  and  _442
REMARK  188  A    between atoms: _442  and  _443
REMARK  189  A    between atoms: _445  and  _447
REMARK  190  A    between atoms: _447  and  _448
REMARK  191  A    between atoms: _447  and  _450
REMARK  192  A    between atoms: _450  and  _451
REMARK  193  A    between atoms: _454  and  _456
REMARK  194  A    between atoms: _456  and  _457
REMARK  195  A    between atoms: _456  and  _459
REMARK  196  A    between atoms: _459  and  _460
REMARK  197  A    between atoms: _460  and  _461
REMARK  198  A    between atoms: _461  and  _462
REMARK  199  A    between atoms: _462  and  _463
REMARK  200  A    between atoms: _467  and  _469
REMARK  201  A    between atoms: _469  and  _470
REMARK  202  A    between atoms: _469  and  _472
REMARK  203  A    between atoms: _475  and  _477
REMARK  204  A    between atoms: _477  and  _478
REMARK  205  A    between atoms: _477  and  _480
REMARK  206  A    between atoms: _480  and  _481
REMARK  207  A    between atoms: _484  and  _486
REMARK  208  A    between atoms: _486  and  _487
REMARK  209  A    between atoms: _486  and  _489
REMARK  210  A    between atoms: _489  and  _490
REMARK  211  A    between atoms: _493  and  _495
REMARK  212  A    between atoms: _495  and  _496
REMARK  213  A    between atoms: _495  and  _498
REMARK  214  A    between atoms: _498  and  _499
REMARK  215  A    between atoms: _502  and  _504
REMARK  216  A    between atoms: _504  and  _505
REMARK  217  A    between atoms: _504  and  _507
REMARK  218  A    between atoms: _507  and  _508
REMARK  219  A    between atoms: _508  and  _509
REMARK  220  A    between atoms: _509  and  _510
REMARK  221  A    between atoms: _510  and  _511
REMARK  222  A    between atoms: _515  and  _517
REMARK  223  A    between atoms: _517  and  _518
REMARK  224  A    between atoms: _517  and  _520
REMARK  225  A    between atoms: _520  and  _521
REMARK  226  A    between atoms: _526  and  _527
REMARK                            x       y       z     vdW  Elec       q    Type
REMARK                         _______ _______ _______ _____ _____    ______ ____
ROOT
ATOM      1  O   HOH     1      36.769   0.638  22.748  0.00  0.00    +0.000 OA
ENDROOT
TORSDOF 0
REMARK  Name = ../refined-set-2016/2uwd/2uwd_pocket.pdb
REMARK  226 active torsions:
REMARK  status: ('A' for Active; 'I' for Inactive)
REMARK    1  A    between atoms: _1  and  _3
REMARK    2  A    between atoms: _3  and  _4
REMARK    3  A    between atoms: _3  and  _6
REMARK    4  A    between atoms: _6  and  _7
REMARK    5  A    between atoms: _13  and  _15
REMARK    6  A    between atoms: _15  and  _16
REMARK    7  A    between atoms: _15  and  _18
REMARK    8  A    between atoms: _18  and  _19
REMARK    9  A    between atoms: _22  and  _24
REMARK   10  A    between atoms: _24  and  _25
REMARK   11  A    between atoms: _24  and  _27
REMARK   12  A    between atoms: _27  and  _28
REMARK   13  A    between atoms: _28  and  _29
REMARK   14  A    between atoms: _32  and  _34
REMARK   15  A    between atoms: _34  and  _35
REMARK   16  A    between atoms: _34  and  _37
REMARK   17  A    between atoms: _37  and  _38
REMARK   18  A    between atoms: _41  and  _43
REMARK   19  A    between atoms: _43  and  _44
REMARK   20  A    between atoms: _43  and  _46
REMARK   21  A    between atoms: _46  and  _47
REMARK   22  A    between atoms: _50  and  _52
REMARK   23  A    between atoms: _52  and  _53
REMARK   24  A    between atoms: _52  and  _55
REMARK   25  A    between atoms: _55  and  _56
REMARK   26  A    between atoms: _58  and  _60
REMARK   27  A    between atoms: _60  and  _61
REMARK   28  A    between atoms: _60  and  _63
REMARK   29  A    between atoms: _63  and  _64
REMARK   30  A    between atoms: _69  and  _71
REMARK   31  A    between atoms: _71  and  _72
REMARK   32  A    between atoms: _71  and  _74
REMARK   33  A    between atoms: _74  and  _75
REMARK   34  A    between atoms: _77  and  _79
REMARK   35  A    between atoms: _79  and  _80
REMARK   36  A    between atoms: _79  and  _82
REMARK   37  A    between atoms: _82  and  _83
REMARK   38  A    between atoms: _85  and  _87
REMARK   39  A    between atoms: _87  and  _88
REMARK   40  A    between atoms: _87  and  _90
REMARK   41  A    between atoms: _90  and  _91
REMARK   42  A    between atoms: _94  and  _96
REMARK   43  A    between atoms: _96  and  _97
REMARK   44  A    between atoms: _100  and  _102
REMARK   45  A    between atoms: _102  and  _103
REMARK   46  A    between atoms: _102  and  _105
REMARK   47  A    between atoms: _105  and  _106
REMARK   48  A    between atoms: _109  and  _111
REMARK   49  A    between atoms: _111  and  _112
REMARK   50  A    between atoms: _111  and  _114
REMARK   51  A    between atoms: _114  and  _115
REMARK   52  A    between atoms: _118  and  _120
REMARK   53  A    between atoms: _120  and  _121
REMARK   54  A    between atoms: _120  and  _123
REMARK   55  A    between atoms: _123  and  _124
REMARK   56  A    between atoms: _124  and  _125
REMARK   57  A    between atoms: _125  and  _126
REMARK   58  A    between atoms: _126  and  _127
REMARK   59  A    between atoms: _131  and  _133
REMARK   60  A    between atoms: _133  and  _134
REMARK   61  A    between atoms: _133  and  _136
REMARK   62  A    between atoms: _136  and  _137
REMARK   63  A    between atoms: _140  and  _142
REMARK   64  A    between atoms: _142  and  _143
REMARK   65  A    between atoms: _142  and  _145
REMARK   66  A    between atoms: _145  and  _146
REMARK   67  A    between atoms: _146  and  _147
REMARK   68  A    between atoms: _150  and  _152
REMARK   69  A    between atoms: _152  and  _153
REMARK   70  A    between atoms: _152  and  _155
REMARK   71  A    between atoms: _155  and  _156
REMARK   72  A    between atoms: _159  and  _161
REMARK   73  A    between atoms: _161  and  _162
REMARK   74  A    between atoms: _161  and  _164
REMARK   75  A    between atoms: _164  and  _165
REMARK   76  A    between atoms: _168  and  _170
REMARK   77  A    between atoms: _170  and  _171
REMARK   78  A    between atoms: _170  and  _173
REMARK   79  A    between atoms: _176  and  _178
REMARK   80  A    between atoms: _178  and  _179
REMARK   81  A    between atoms: _178  and  _181
REMARK   82  A    between atoms: _181  and  _182
REMARK   83  A    between atoms: _185  and  _187
REMARK   84  A    between atoms: _187  and  _188
REMARK   85  A    between atoms: _187  and  _190
REMARK   86  A    between atoms: _190  and  _191
REMARK   87  A    between atoms: _194  and  _196
REMARK   88  A    between atoms: _196  and  _197
REMARK   89  A    between atoms: _199  and  _201
REMARK   90  A    between atoms: _201  and  _202
REMARK   91  A    between atoms: _201  and  _204
REMARK   92  A    between atoms: _204  and  _205
REMARK   93  A    between atoms: _208  and  _210
REMARK   94  A    between atoms: _210  and  _211
REMARK   95  A    between atoms: _213  and  _215
REMARK   96  A    between atoms: _215  and  _216
REMARK   97  A    between atoms: _215  and  _218
REMARK   98  A    between atoms: _218  and  _219
REMARK   99  A    between atoms: _219  and  _220
REMARK  100  A    between atoms: _222  and  _224
REMARK  101  A    between atoms: _224  and  _225
REMARK  102  A    between atoms: _224  and  _227
REMARK  103  A    between atoms: _227  and  _228
REMARK  104  A    between atoms: _231  and  _233
REMARK  105  A    between atoms: _233  and  _234
REMARK  106  A    between atoms: _237  and  _239
REMARK  107  A    between atoms: _239  and  _240
REMARK  108  A    between atoms: _239  and  _242
REMARK  109  A    between atoms: _242  and  _243
REMARK  110  A    between atoms: _246  and  _248
REMARK  111  A    between atoms: _248  and  _249
REMARK  112  A    between atoms: _248  and  _251
REMARK  113  A    between atoms: _251  and  _252
REMARK  114  A    between atoms: _255  and  _257
REMARK  115  A    between atoms: _257  and  _258
REMARK  116  A    between atoms: _257  and  _260
REMARK  117  A    between atoms: _260  and  _261
REMARK  118  A    between atoms: _266  and  _268
REMARK  119  A    between atoms: _268  and  _269
REMARK  120  A    between atoms: _268  and  _271
REMARK  121  A    between atoms: _271  and  _272
REMARK  122  A    between atoms: _277  and  _279
REMARK  123  A    between atoms: _279  and  _280
REMARK  124  A    between atoms: _279  and  _282
REMARK  125  A    between atoms: _282  and  _283
REMARK  126  A    between atoms: _286  and  _288
REMARK  127  A    between atoms: _288  and  _289
REMARK  128  A    between atoms: _291  and  _293
REMARK  129  A    between atoms: _293  and  _294
REMARK  130  A    between atoms: _293  and  _296
REMARK  131  A    between atoms: _296  and  _297
REMARK  132  A    between atoms: _300  and  _302
REMARK  133  A    between atoms: _302  and  _303
REMARK  134  A    between atoms: _302  and  _305
REMARK  135  A    between atoms: _305  and  _306
REMARK  136  A    between atoms: _309  and  _311
REMARK  137  A    between atoms: _311  and  _312
REMARK  138  A    between atoms: _315  and  _317
REMARK  139  A    between atoms: _317  and  _318
REMARK  140  A    between atoms: _320  and  _322
REMARK  141  A    between atoms: _322  and  _323
REMARK  142  A    between atoms: _322  and  _325
REMARK  143  A    between atoms: _325  and  _326
REMARK  144  A    between atoms: _332  and  _334
REMARK  145  A    between atoms: _334  and  _335
REMARK  146  A    between atoms: _337  and  _339
REMARK  147  A    between atoms: _339  and  _340
REMARK  148  A    between atoms: _339  and  _342
REMARK  149  A    between atoms: _345  and  _347
REMARK  150  A    between atoms: _347  and  _348
REMARK  151  A    between atoms: _350  and  _352
REMARK  152  A    between atoms: _352  and  _353
REMARK  153  A    between atoms: _352  and  _355
REMARK  154  A    between atoms: _355  and  _356
REMARK  155  A    between atoms: _362  and  _364
REMARK  156  A    between atoms: _364  and  _365
REMARK  157  A    between atoms: _364  and  _367
REMARK  158  A    between atoms: _367  and  _368
REMARK  159  A    between atoms: _373  and  _374
REMARK  160  A    between atoms: _376  and  _378
REMARK  161  A    between atoms: _378  and  _379
REMARK  162  A    between atoms: _382  and  _384
REMARK  163  A    between atoms: _384  and  _385
REMARK  164  A    between atoms: _384  and  _387
REMARK  165  A    between atoms: _390  and  _392
REMARK  166  A    between atoms: _392  and  _393
REMARK  167  A    between atoms: _392  and  _395
REMARK  168  A    between atoms: _398  and  _400
REMARK  169  A    between atoms: _400  and  _401
REMARK  170  A    between atoms: _400  and  _403
REMARK  171  A    between atoms: _403  and  _404
REMARK  172  A    between atoms: _407  and  _409
REMARK  173  A    between atoms: _409  and  _410
REMARK  174  A    between atoms: _409  and  _412
REMARK  175  A    between atoms: _412  and  _413
REMARK  176  A    between atoms: _416  and  _418
REMARK  177  A    between atoms: _418  and  _419
REMARK  178  A    between atoms: _418  and  _421
REMARK  179  A    between atoms: _421  and  _422
REMARK  180  A    between atoms: _422  and  _423
REMARK  181  A    between atoms: _423  and  _424
REMARK  182  A    between atoms: _424  and  _425
REMARK  183  A    between atoms: _429  and  _431
REMARK  184  A    between atoms: _431  and  _432
REMARK  185  A    between atoms: _431  and  _434
REMARK  186  A    between atoms: _434  and  _435
REMARK  187  A    between atoms: _440  and  _442
REMARK  188  A    between atoms: _442  and  _443
REMARK  189  A    between atoms: _445  and  _447
REMARK  190  A    between atoms: _447  and  _448
REMARK  191  A    between atoms: _447  and  _450
REMARK  192  A    between atoms: _450  and  _451
REMARK  193  A    between atoms: _454  and  _456
REMARK  194  A    between atoms: _456  and  _457
REMARK  195  A    between atoms: _456  and  _459
REMARK  196  A    between atoms: _459  and  _460
REMARK  197  A    between atoms: _460  and  _461
REMARK  198  A    between atoms: _461  and  _462
REMARK  199  A    between atoms: _462  and  _463
REMARK  200  A    between atoms: _467  and  _469
REMARK  201  A    between atoms: _469  and  _470
REMARK  202  A    between atoms: _469  and  _472
REMARK  203  A    between atoms: _475  and  _477
REMARK  204  A    between atoms: _477  and  _478
REMARK  205  A    between atoms: _477  and  _480
REMARK  206  A    between atoms: _480  and  _481
REMARK  207  A    between atoms: _484  and  _486
REMARK  208  A    between atoms: _486  and  _487
REMARK  209  A    between atoms: _486  and  _489
REMARK  210  A    between atoms: _489  and  _490
REMARK  211  A    between atoms: _493  and  _495
REMARK  212  A    between atoms: _495  and  _496
REMARK  213  A    between atoms: _495  and  _498
REMARK  214  A    between atoms: _498  and  _499
REMARK  215  A    between atoms: _502  and  _504
REMARK  216  A    between atoms: _504  and  _505
REMARK  217  A    between atoms: _504  and  _507
REMARK  218  A    between atoms: _507  and  _508
REMARK  219  A    between atoms: _508  and  _509
REMARK  220  A    between atoms: _509  and  _510
REMARK  221  A    between atoms: _510  and  _511
REMARK  222  A    between atoms: _515  and  _517
REMARK  223  A    between atoms: _517  and  _518
REMARK  224  A    between atoms: _517  and  _520
REMARK  225  A    between atoms: _520  and  _521
REMARK  226  A    between atoms: _526  and  _527
REMARK                            x       y       z     vdW  Elec       q    Type
REMARK                         _______ _______ _______ _____ _____    ______ ____
ROOT
ATOM      1  O   HOH     1      37.506   0.384  30.848  0.00  0.00    +0.000 OA
ENDROOT
TORSDOF 0
REMARK  Name = ../refined-set-2016/2uwd/2uwd_pocket.pdb
REMARK  226 active torsions:
REMARK  status: ('A' for Active; 'I' for Inactive)
REMARK    1  A    between atoms: _1  and  _3
REMARK    2  A    between atoms: _3  and  _4
REMARK    3  A    between atoms: _3  and  _6
REMARK    4  A    between atoms: _6  and  _7
REMARK    5  A    between atoms: _13  and  _15
REMARK    6  A    between atoms: _15  and  _16
REMARK    7  A    between atoms: _15  and  _18
REMARK    8  A    between atoms: _18  and  _19
REMARK    9  A    between atoms: _22  and  _24
REMARK   10  A    between atoms: _24  and  _25
REMARK   11  A    between atoms: _24  and  _27
REMARK   12  A    between atoms: _27  and  _28
REMARK   13  A    between atoms: _28  and  _29
REMARK   14  A    between atoms: _32  and  _34
REMARK   15  A    between atoms: _34  and  _35
REMARK   16  A    between atoms: _34  and  _37
REMARK   17  A    between atoms: _37  and  _38
REMARK   18  A    between atoms: _41  and  _43
REMARK   19  A    between atoms: _43  and  _44
REMARK   20  A    between atoms: _43  and  _46
REMARK   21  A    between atoms: _46  and  _47
REMARK   22  A    between atoms: _50  and  _52
REMARK   23  A    between atoms: _52  and  _53
REMARK   24  A    between atoms: _52  and  _55
REMARK   25  A    between atoms: _55  and  _56
REMARK   26  A    between atoms: _58  and  _60
REMARK   27  A    between atoms: _60  and  _61
REMARK   28  A    between atoms: _60  and  _63
REMARK   29  A    between atoms: _63  and  _64
REMARK   30  A    between atoms: _69  and  _71
REMARK   31  A    between atoms: _71  and  _72
REMARK   32  A    between atoms: _71  and  _74
REMARK   33  A    between atoms: _74  and  _75
REMARK   34  A    between atoms: _77  and  _79
REMARK   35  A    between atoms: _79  and  _80
REMARK   36  A    between atoms: _79  and  _82
REMARK   37  A    between atoms: _82  and  _83
REMARK   38  A    between atoms: _85  and  _87
REMARK   39  A    between atoms: _87  and  _88
REMARK   40  A    between atoms: _87  and  _90
REMARK   41  A    between atoms: _90  and  _91
REMARK   42  A    between atoms: _94  and  _96
REMARK   43  A    between atoms: _96  and  _97
REMARK   44  A    between atoms: _100  and  _102
REMARK   45  A    between atoms: _102  and  _103
REMARK   46  A    between atoms: _102  and  _105
REMARK   47  A    between atoms: _105  and  _106
REMARK   48  A    between atoms: _109  and  _111
REMARK   49  A    between atoms: _111  and  _112
REMARK   50  A    between atoms: _111  and  _114
REMARK   51  A    between atoms: _114  and  _115
REMARK   52  A    between atoms: _118  and  _120
REMARK   53  A    between atoms: _120  and  _121
REMARK   54  A    between atoms: _120  and  _123
REMARK   55  A    between atoms: _123  and  _124
REMARK   56  A    between atoms: _124  and  _125
REMARK   57  A    between atoms: _125  and  _126
REMARK   58  A    between atoms: _126  and  _127
REMARK   59  A    between atoms: _131  and  _133
REMARK   60  A    between atoms: _133  and  _134
REMARK   61  A    between atoms: _133  and  _136
REMARK   62  A    between atoms: _136  and  _137
REMARK   63  A    between atoms: _140  and  _142
REMARK   64  A    between atoms: _142  and  _143
REMARK   65  A    between atoms: _142  and  _145
REMARK   66  A    between atoms: _145  and  _146
REMARK   67  A    between atoms: _146  and  _147
REMARK   68  A    between atoms: _150  and  _152
REMARK   69  A    between atoms: _152  and  _153
REMARK   70  A    between atoms: _152  and  _155
REMARK   71  A    between atoms: _155  and  _156
REMARK   72  A    between atoms: _159  and  _161
REMARK   73  A    between atoms: _161  and  _162
REMARK   74  A    between atoms: _161  and  _164
REMARK   75  A    between atoms: _164  and  _165
REMARK   76  A    between atoms: _168  and  _170
REMARK   77  A    between atoms: _170  and  _171
REMARK   78  A    between atoms: _170  and  _173
REMARK   79  A    between atoms: _176  and  _178
REMARK   80  A    between atoms: _178  and  _179
REMARK   81  A    between atoms: _178  and  _181
REMARK   82  A    between atoms: _181  and  _182
REMARK   83  A    between atoms: _185  and  _187
REMARK   84  A    between atoms: _187  and  _188
REMARK   85  A    between atoms: _187  and  _190
REMARK   86  A    between atoms: _190  and  _191
REMARK   87  A    between atoms: _194  and  _196
REMARK   88  A    between atoms: _196  and  _197
REMARK   89  A    between atoms: _199  and  _201
REMARK   90  A    between atoms: _201  and  _202
REMARK   91  A    between atoms: _201  and  _204
REMARK   92  A    between atoms: _204  and  _205
REMARK   93  A    between atoms: _208  and  _210
REMARK   94  A    between atoms: _210  and  _211
REMARK   95  A    between atoms: _213  and  _215
REMARK   96  A    between atoms: _215  and  _216
REMARK   97  A    between atoms: _215  and  _218
REMARK   98  A    between atoms: _218  and  _219
REMARK   99  A    between atoms: _219  and  _220
REMARK  100  A    between atoms: _222  and  _224
REMARK  101  A    between atoms: _224  and  _225
REMARK  102  A    between atoms: _224  and  _227
REMARK  103  A    between atoms: _227  and  _228
REMARK  104  A    between atoms: _231  and  _233
REMARK  105  A    between atoms: _233  and  _234
REMARK  106  A    between atoms: _237  and  _239
REMARK  107  A    between atoms: _239  and  _240
REMARK  108  A    between atoms: _239  and  _242
REMARK  109  A    between atoms: _242  and  _243
REMARK  110  A    between atoms: _246  and  _248
REMARK  111  A    between atoms: _248  and  _249
REMARK  112  A    between atoms: _248  and  _251
REMARK  113  A    between atoms: _251  and  _252
REMARK  114  A    between atoms: _255  and  _257
REMARK  115  A    between atoms: _257  and  _258
REMARK  116  A    between atoms: _257  and  _260
REMARK  117  A    between atoms: _260  and  _261
REMARK  118  A    between atoms: _266  and  _268
REMARK  119  A    between atoms: _268  and  _269
REMARK  120  A    between atoms: _268  and  _271
REMARK  121  A    between atoms: _271  and  _272
REMARK  122  A    between atoms: _277  and  _279
REMARK  123  A    between atoms: _279  and  _280
REMARK  124  A    between atoms: _279  and  _282
REMARK  125  A    between atoms: _282  and  _283
REMARK  126  A    between atoms: _286  and  _288
REMARK  127  A    between atoms: _288  and  _289
REMARK  128  A    between atoms: _291  and  _293
REMARK  129  A    between atoms: _293  and  _294
REMARK  130  A    between atoms: _293  and  _296
REMARK  131  A    between atoms: _296  and  _297
REMARK  132  A    between atoms: _300  and  _302
REMARK  133  A    between atoms: _302  and  _303
REMARK  134  A    between atoms: _302  and  _305
REMARK  135  A    between atoms: _305  and  _306
REMARK  136  A    between atoms: _309  and  _311
REMARK  137  A    between atoms: _311  and  _312
REMARK  138  A    between atoms: _315  and  _317
REMARK  139  A    between atoms: _317  and  _318
REMARK  140  A    between atoms: _320  and  _322
REMARK  141  A    between atoms: _322  and  _323
REMARK  142  A    between atoms: _322  and  _325
REMARK  143  A    between atoms: _325  and  _326
REMARK  144  A    between atoms: _332  and  _334
REMARK  145  A    between atoms: _334  and  _335
REMARK  146  A    between atoms: _337  and  _339
REMARK  147  A    between atoms: _339  and  _340
REMARK  148  A    between atoms: _339  and  _342
REMARK  149  A    between atoms: _345  and  _347
REMARK  150  A    between atoms: _347  and  _348
REMARK  151  A    between atoms: _350  and  _352
REMARK  152  A    between atoms: _352  and  _353
REMARK  153  A    between atoms: _352  and  _355
REMARK  154  A    between atoms: _355  and  _356
REMARK  155  A    between atoms: _362  and  _364
REMARK  156  A    between atoms: _364  and  _365
REMARK  157  A    between atoms: _364  and  _367
REMARK  158  A    between atoms: _367  and  _368
REMARK  159  A    between atoms: _373  and  _374
REMARK  160  A    between atoms: _376  and  _378
REMARK  161  A    between atoms: _378  and  _379
REMARK  162  A    between atoms: _382  and  _384
REMARK  163  A    between atoms: _384  and  _385
REMARK  164  A    between atoms: _384  and  _387
REMARK  165  A    between atoms: _390  and  _392
REMARK  166  A    between atoms: _392  and  _393
REMARK  167  A    between atoms: _392  and  _395
REMARK  168  A    between atoms: _398  and  _400
REMARK  169  A    between atoms: _400  and  _401
REMARK  170  A    between atoms: _400  and  _403
REMARK  171  A    between atoms: _403  and  _404
REMARK  172  A    between atoms: _407  and  _409
REMARK  173  A    between atoms: _409  and  _410
REMARK  174  A    between atoms: _409  and  _412
REMARK  175  A    between atoms: _412  and  _413
REMARK  176  A    between atoms: _416  and  _418
REMARK  177  A    between atoms: _418  and  _419
REMARK  178  A    between atoms: _418  and  _421
REMARK  179  A    between atoms: _421  and  _422
REMARK  180  A    between atoms: _422  and  _423
REMARK  181  A    between atoms: _423  and  _424
REMARK  182  A    between atoms: _424  and  _425
REMARK  183  A    between atoms: _429  and  _431
REMARK  184  A    between atoms: _431  and  _432
REMARK  185  A    between atoms: _431  and  _434
REMARK  186  A    between atoms: _434  and  _435
REMARK  187  A    between atoms: _440  and  _442
REMARK  188  A    between atoms: _442  and  _443
REMARK  189  A    between atoms: _445  and  _447
REMARK  190  A    between atoms: _447  and  _448
REMARK  191  A    between atoms: _447  and  _450
REMARK  192  A    between atoms: _450  and  _451
REMARK  193  A    between atoms: _454  and  _456
REMARK  194  A    between atoms: _456  and  _457
REMARK  195  A    between atoms: _456  and  _459
REMARK  196  A    between atoms: _459  and  _460
REMARK  197  A    between atoms: _460  and  _461
REMARK  198  A    between atoms: _461  and  _462
REMARK  199  A    between atoms: _462  and  _463
REMARK  200  A    between atoms: _467  and  _469
REMARK  201  A    between atoms: _469  and  _470
REMARK  202  A    between atoms: _469  and  _472
REMARK  203  A    between atoms: _475  and  _477
REMARK  204  A    between atoms: _477  and  _478
REMARK  205  A    between atoms: _477  and  _480
REMARK  206  A    between atoms: _480  and  _481
REMARK  207  A    between atoms: _484  and  _486
REMARK  208  A    between atoms: _486  and  _487
REMARK  209  A    between atoms: _486  and  _489
REMARK  210  A    between atoms: _489  and  _490
REMARK  211  A    between atoms: _493  and  _495
REMARK  212  A    between atoms: _495  and  _496
REMARK  213  A    between atoms: _495  and  _498
REMARK  214  A    between atoms: _498  and  _499
REMARK  215  A    between atoms: _502  and  _504
REMARK  216  A    between atoms: _504  and  _505
REMARK  217  A    between atoms: _504  and  _507
REMARK  218  A    between atoms: _507  and  _508
REMARK  219  A    between atoms: _508  and  _509
REMARK  220  A    between atoms: _509  and  _510
REMARK  221  A    between atoms: _510  and  _511
REMARK  222  A    between atoms: _515  and  _517
REMARK  223  A    between atoms: _517  and  _518
REMARK  224  A    between atoms: _517  and  _520
REMARK  225  A    between atoms: _520  and  _521
REMARK  226  A    between atoms: _526  and  _527
REMARK                            x       y       z     vdW  Elec       q    Type
REMARK                         _______ _______ _______ _____ _____    ______ ____
ROOT
ATOM      1  O   HOH     1      33.350  -1.043  24.003  0.00  0.00    +0.000 OA
ENDROOT
TORSDOF 0
REMARK  Name = ../refined-set-2016/2uwd/2uwd_pocket.pdb
REMARK  226 active torsions:
REMARK  status: ('A' for Active; 'I' for Inactive)
REMARK    1  A    between atoms: _1  and  _3
REMARK    2  A    between atoms: _3  and  _4
REMARK    3  A    between atoms: _3  and  _6
REMARK    4  A    between atoms: _6  and  _7
REMARK    5  A    between atoms: _13  and  _15
REMARK    6  A    between atoms: _15  and  _16
REMARK    7  A    between atoms: _15  and  _18
REMARK    8  A    between atoms: _18  and  _19
REMARK    9  A    between atoms: _22  and  _24
REMARK   10  A    between atoms: _24  and  _25
REMARK   11  A    between atoms: _24  and  _27
REMARK   12  A    between atoms: _27  and  _28
REMARK   13  A    between atoms: _28  and  _29
REMARK   14  A    between atoms: _32  and  _34
REMARK   15  A    between atoms: _34  and  _35
REMARK   16  A    between atoms: _34  and  _37
REMARK   17  A    between atoms: _37  and  _38
REMARK   18  A    between atoms: _41  and  _43
REMARK   19  A    between atoms: _43  and  _44
REMARK   20  A    between atoms: _43  and  _46
REMARK   21  A    between atoms: _46  and  _47
REMARK   22  A    between atoms: _50  and  _52
REMARK   23  A    between atoms: _52  and  _53
REMARK   24  A    between atoms: _52  and  _55
REMARK   25  A    between atoms: _55  and  _56
REMARK   26  A    between atoms: _58  and  _60
REMARK   27  A    between atoms: _60  and  _61
REMARK   28  A    between atoms: _60  and  _63
REMARK   29  A    between atoms: _63  and  _64
REMARK   30  A    between atoms: _69  and  _71
REMARK   31  A    between atoms: _71  and  _72
REMARK   32  A    between atoms: _71  and  _74
REMARK   33  A    between atoms: _74  and  _75
REMARK   34  A    between atoms: _77  and  _79
REMARK   35  A    between atoms: _79  and  _80
REMARK   36  A    between atoms: _79  and  _82
REMARK   37  A    between atoms: _82  and  _83
REMARK   38  A    between atoms: _85  and  _87
REMARK   39  A    between atoms: _87  and  _88
REMARK   40  A    between atoms: _87  and  _90
REMARK   41  A    between atoms: _90  and  _91
REMARK   42  A    between atoms: _94  and  _96
REMARK   43  A    between atoms: _96  and  _97
REMARK   44  A    between atoms: _100  and  _102
REMARK   45  A    between atoms: _102  and  _103
REMARK   46  A    between atoms: _102  and  _105
REMARK   47  A    between atoms: _105  and  _106
REMARK   48  A    between atoms: _109  and  _111
REMARK   49  A    between atoms: _111  and  _112
REMARK   50  A    between atoms: _111  and  _114
REMARK   51  A    between atoms: _114  and  _115
REMARK   52  A    between atoms: _118  and  _120
REMARK   53  A    between atoms: _120  and  _121
REMARK   54  A    between atoms: _120  and  _123
REMARK   55  A    between atoms: _123  and  _124
REMARK   56  A    between atoms: _124  and  _125
REMARK   57  A    between atoms: _125  and  _126
REMARK   58  A    between atoms: _126  and  _127
REMARK   59  A    between atoms: _131  and  _133
REMARK   60  A    between atoms: _133  and  _134
REMARK   61  A    between atoms: _133  and  _136
REMARK   62  A    between atoms: _136  and  _137
REMARK   63  A    between atoms: _140  and  _142
REMARK   64  A    between atoms: _142  and  _143
REMARK   65  A    between atoms: _142  and  _145
REMARK   66  A    between atoms: _145  and  _146
REMARK   67  A    between atoms: _146  and  _147
REMARK   68  A    between atoms: _150  and  _152
REMARK   69  A    between atoms: _152  and  _153
REMARK   70  A    between atoms: _152  and  _155
REMARK   71  A    between atoms: _155  and  _156
REMARK   72  A    between atoms: _159  and  _161
REMARK   73  A    between atoms: _161  and  _162
REMARK   74  A    between atoms: _161  and  _164
REMARK   75  A    between atoms: _164  and  _165
REMARK   76  A    between atoms: _168  and  _170
REMARK   77  A    between atoms: _170  and  _171
REMARK   78  A    between atoms: _170  and  _173
REMARK   79  A    between atoms: _176  and  _178
REMARK   80  A    between atoms: _178  and  _179
REMARK   81  A    between atoms: _178  and  _181
REMARK   82  A    between atoms: _181  and  _182
REMARK   83  A    between atoms: _185  and  _187
REMARK   84  A    between atoms: _187  and  _188
REMARK   85  A    between atoms: _187  and  _190
REMARK   86  A    between atoms: _190  and  _191
REMARK   87  A    between atoms: _194  and  _196
REMARK   88  A    between atoms: _196  and  _197
REMARK   89  A    between atoms: _199  and  _201
REMARK   90  A    between atoms: _201  and  _202
REMARK   91  A    between atoms: _201  and  _204
REMARK   92  A    between atoms: _204  and  _205
REMARK   93  A    between atoms: _208  and  _210
REMARK   94  A    between atoms: _210  and  _211
REMARK   95  A    between atoms: _213  and  _215
REMARK   96  A    between atoms: _215  and  _216
REMARK   97  A    between atoms: _215  and  _218
REMARK   98  A    between atoms: _218  and  _219
REMARK   99  A    between atoms: _219  and  _220
REMARK  100  A    between atoms: _222  and  _224
REMARK  101  A    between atoms: _224  and  _225
REMARK  102  A    between atoms: _224  and  _227
REMARK  103  A    between atoms: _227  and  _228
REMARK  104  A    between atoms: _231  and  _233
REMARK  105  A    between atoms: _233  and  _234
REMARK  106  A    between atoms: _237  and  _239
REMARK  107  A    between atoms: _239  and  _240
REMARK  108  A    between atoms: _239  and  _242
REMARK  109  A    between atoms: _242  and  _243
REMARK  110  A    between atoms: _246  and  _248
REMARK  111  A    between atoms: _248  and  _249
REMARK  112  A    between atoms: _248  and  _251
REMARK  113  A    between atoms: _251  and  _252
REMARK  114  A    between atoms: _255  and  _257
REMARK  115  A    between atoms: _257  and  _258
REMARK  116  A    between atoms: _257  and  _260
REMARK  117  A    between atoms: _260  and  _261
REMARK  118  A    between atoms: _266  and  _268
REMARK  119  A    between atoms: _268  and  _269
REMARK  120  A    between atoms: _268  and  _271
REMARK  121  A    between atoms: _271  and  _272
REMARK  122  A    between atoms: _277  and  _279
REMARK  123  A    between atoms: _279  and  _280
REMARK  124  A    between atoms: _279  and  _282
REMARK  125  A    between atoms: _282  and  _283
REMARK  126  A    between atoms: _286  and  _288
REMARK  127  A    between atoms: _288  and  _289
REMARK  128  A    between atoms: _291  and  _293
REMARK  129  A    between atoms: _293  and  _294
REMARK  130  A    between atoms: _293  and  _296
REMARK  131  A    between atoms: _296  and  _297
REMARK  132  A    between atoms: _300  and  _302
REMARK  133  A    between atoms: _302  and  _303
REMARK  134  A    between atoms: _302  and  _305
REMARK  135  A    between atoms: _305  and  _306
REMARK  136  A    between atoms: _309  and  _311
REMARK  137  A    between atoms: _311  and  _312
REMARK  138  A    between atoms: _315  and  _317
REMARK  139  A    between atoms: _317  and  _318
REMARK  140  A    between atoms: _320  and  _322
REMARK  141  A    between atoms: _322  and  _323
REMARK  142  A    between atoms: _322  and  _325
REMARK  143  A    between atoms: _325  and  _326
REMARK  144  A    between atoms: _332  and  _334
REMARK  145  A    between atoms: _334  and  _335
REMARK  146  A    between atoms: _337  and  _339
REMARK  147  A    between atoms: _339  and  _340
REMARK  148  A    between atoms: _339  and  _342
REMARK  149  A    between atoms: _345  and  _347
REMARK  150  A    between atoms: _347  and  _348
REMARK  151  A    between atoms: _350  and  _352
REMARK  152  A    between atoms: _352  and  _353
REMARK  153  A    between atoms: _352  and  _355
REMARK  154  A    between atoms: _355  and  _356
REMARK  155  A    between atoms: _362  and  _364
REMARK  156  A    between atoms: _364  and  _365
REMARK  157  A    between atoms: _364  and  _367
REMARK  158  A    between atoms: _367  and  _368
REMARK  159  A    between atoms: _373  and  _374
REMARK  160  A    between atoms: _376  and  _378
REMARK  161  A    between atoms: _378  and  _379
REMARK  162  A    between atoms: _382  and  _384
REMARK  163  A    between atoms: _384  and  _385
REMARK  164  A    between atoms: _384  and  _387
REMARK  165  A    between atoms: _390  and  _392
REMARK  166  A    between atoms: _392  and  _393
REMARK  167  A    between atoms: _392  and  _395
REMARK  168  A    between atoms: _398  and  _400
REMARK  169  A    between atoms: _400  and  _401
REMARK  170  A    between atoms: _400  and  _403
REMARK  171  A    between atoms: _403  and  _404
REMARK  172  A    between atoms: _407  and  _409
REMARK  173  A    between atoms: _409  and  _410
REMARK  174  A    between atoms: _409  and  _412
REMARK  175  A    between atoms: _412  and  _413
REMARK  176  A    between atoms: _416  and  _418
REMARK  177  A    between atoms: _418  and  _419
REMARK  178  A    between atoms: _418  and  _421
REMARK  179  A    between atoms: _421  and  _422
REMARK  180  A    between atoms: _422  and  _423
REMARK  181  A    between atoms: _423  and  _424
REMARK  182  A    between atoms: _424  and  _425
REMARK  183  A    between atoms: _429  and  _431
REMARK  184  A    between atoms: _431  and  _432
REMARK  185  A    between atoms: _431  and  _434
REMARK  186  A    between atoms: _434  and  _435
REMARK  187  A    between atoms: _440  and  _442
REMARK  188  A    between atoms: _442  and  _443
REMARK  189  A    between atoms: _445  and  _447
REMARK  190  A    between atoms: _447  and  _448
REMARK  191  A    between atoms: _447  and  _450
REMARK  192  A    between atoms: _450  and  _451
REMARK  193  A    between atoms: _454  and  _456
REMARK  194  A    between atoms: _456  and  _457
REMARK  195  A    between atoms: _456  and  _459
REMARK  196  A    between atoms: _459  and  _460
REMARK  197  A    between atoms: _460  and  _461
REMARK  198  A    between atoms: _461  and  _462
REMARK  199  A    between atoms: _462  and  _463
REMARK  200  A    between atoms: _467  and  _469
REMARK  201  A    between atoms: _469  and  _470
REMARK  202  A    between atoms: _469  and  _472
REMARK  203  A    between atoms: _475  and  _477
REMARK  204  A    between atoms: _477  and  _478
REMARK  205  A    between atoms: _477  and  _480
REMARK  206  A    between atoms: _480  and  _481
REMARK  207  A    between atoms: _484  and  _486
REMARK  208  A    between atoms: _486  and  _487
REMARK  209  A    between atoms: _486  and  _489
REMARK  210  A    between atoms: _489  and  _490
REMARK  211  A    between atoms: _493  and  _495
REMARK  212  A    between atoms: _495  and  _496
REMARK  213  A    between atoms: _495  and  _498
REMARK  214  A    between atoms: _498  and  _499
REMARK  215  A    between atoms: _502  and  _504
REMARK  216  A    between atoms: _504  and  _505
REMARK  217  A    between atoms: _504  and  _507
REMARK  218  A    between atoms: _507  and  _508
REMARK  219  A    between atoms: _508  and  _509
REMARK  220  A    between atoms: _509  and  _510
REMARK  221  A    between atoms: _510  and  _511
REMARK  222  A    between atoms: _515  and  _517
REMARK  223  A    between atoms: _517  and  _518
REMARK  224  A    between atoms: _517  and  _520
REMARK  225  A    between atoms: _520  and  _521
REMARK  226  A    between atoms: _526  and  _527
REMARK                            x       y       z     vdW  Elec       q    Type
REMARK                         _______ _______ _______ _____ _____    ______ ____
ROOT
ATOM      1  O   HOH     1      30.747  -1.183  26.730  0.00  0.00    +0.000 OA
ENDROOT
TORSDOF 0
REMARK  Name = ../refined-set-2016/2uwd/2uwd_pocket.pdb
REMARK  226 active torsions:
REMARK  status: ('A' for Active; 'I' for Inactive)
REMARK    1  A    between atoms: _1  and  _3
REMARK    2  A    between atoms: _3  and  _4
REMARK    3  A    between atoms: _3  and  _6
REMARK    4  A    between atoms: _6  and  _7
REMARK    5  A    between atoms: _13  and  _15
REMARK    6  A    between atoms: _15  and  _16
REMARK    7  A    between atoms: _15  and  _18
REMARK    8  A    between atoms: _18  and  _19
REMARK    9  A    between atoms: _22  and  _24
REMARK   10  A    between atoms: _24  and  _25
REMARK   11  A    between atoms: _24  and  _27
REMARK   12  A    between atoms: _27  and  _28
REMARK   13  A    between atoms: _28  and  _29
REMARK   14  A    between atoms: _32  and  _34
REMARK   15  A    between atoms: _34  and  _35
REMARK   16  A    between atoms: _34  and  _37
REMARK   17  A    between atoms: _37  and  _38
REMARK   18  A    between atoms: _41  and  _43
REMARK   19  A    between atoms: _43  and  _44
REMARK   20  A    between atoms: _43  and  _46
REMARK   21  A    between atoms: _46  and  _47
REMARK   22  A    between atoms: _50  and  _52
REMARK   23  A    between atoms: _52  and  _53
REMARK   24  A    between atoms: _52  and  _55
REMARK   25  A    between atoms: _55  and  _56
REMARK   26  A    between atoms: _58  and  _60
REMARK   27  A    between atoms: _60  and  _61
REMARK   28  A    between atoms: _60  and  _63
REMARK   29  A    between atoms: _63  and  _64
REMARK   30  A    between atoms: _69  and  _71
REMARK   31  A    between atoms: _71  and  _72
REMARK   32  A    between atoms: _71  and  _74
REMARK   33  A    between atoms: _74  and  _75
REMARK   34  A    between atoms: _77  and  _79
REMARK   35  A    between atoms: _79  and  _80
REMARK   36  A    between atoms: _79  and  _82
REMARK   37  A    between atoms: _82  and  _83
REMARK   38  A    between atoms: _85  and  _87
REMARK   39  A    between atoms: _87  and  _88
REMARK   40  A    between atoms: _87  and  _90
REMARK   41  A    between atoms: _90  and  _91
REMARK   42  A    between atoms: _94  and  _96
REMARK   43  A    between atoms: _96  and  _97
REMARK   44  A    between atoms: _100  and  _102
REMARK   45  A    between atoms: _102  and  _103
REMARK   46  A    between atoms: _102  and  _105
REMARK   47  A    between atoms: _105  and  _106
REMARK   48  A    between atoms: _109  and  _111
REMARK   49  A    between atoms: _111  and  _112
REMARK   50  A    between atoms: _111  and  _114
REMARK   51  A    between atoms: _114  and  _115
REMARK   52  A    between atoms: _118  and  _120
REMARK   53  A    between atoms: _120  and  _121
REMARK   54  A    between atoms: _120  and  _123
REMARK   55  A    between atoms: _123  and  _124
REMARK   56  A    between atoms: _124  and  _125
REMARK   57  A    between atoms: _125  and  _126
REMARK   58  A    between atoms: _126  and  _127
REMARK   59  A    between atoms: _131  and  _133
REMARK   60  A    between atoms: _133  and  _134
REMARK   61  A    between atoms: _133  and  _136
REMARK   62  A    between atoms: _136  and  _137
REMARK   63  A    between atoms: _140  and  _142
REMARK   64  A    between atoms: _142  and  _143
REMARK   65  A    between atoms: _142  and  _145
REMARK   66  A    between atoms: _145  and  _146
REMARK   67  A    between atoms: _146  and  _147
REMARK   68  A    between atoms: _150  and  _152
REMARK   69  A    between atoms: _152  and  _153
REMARK   70  A    between atoms: _152  and  _155
REMARK   71  A    between atoms: _155  and  _156
REMARK   72  A    between atoms: _159  and  _161
REMARK   73  A    between atoms: _161  and  _162
REMARK   74  A    between atoms: _161  and  _164
REMARK   75  A    between atoms: _164  and  _165
REMARK   76  A    between atoms: _168  and  _170
REMARK   77  A    between atoms: _170  and  _171
REMARK   78  A    between atoms: _170  and  _173
REMARK   79  A    between atoms: _176  and  _178
REMARK   80  A    between atoms: _178  and  _179
REMARK   81  A    between atoms: _178  and  _181
REMARK   82  A    between atoms: _181  and  _182
REMARK   83  A    between atoms: _185  and  _187
REMARK   84  A    between atoms: _187  and  _188
REMARK   85  A    between atoms: _187  and  _190
REMARK   86  A    between atoms: _190  and  _191
REMARK   87  A    between atoms: _194  and  _196
REMARK   88  A    between atoms: _196  and  _197
REMARK   89  A    between atoms: _199  and  _201
REMARK   90  A    between atoms: _201  and  _202
REMARK   91  A    between atoms: _201  and  _204
REMARK   92  A    between atoms: _204  and  _205
REMARK   93  A    between atoms: _208  and  _210
REMARK   94  A    between atoms: _210  and  _211
REMARK   95  A    between atoms: _213  and  _215
REMARK   96  A    between atoms: _215  and  _216
REMARK   97  A    between atoms: _215  and  _218
REMARK   98  A    between atoms: _218  and  _219
REMARK   99  A    between atoms: _219  and  _220
REMARK  100  A    between atoms: _222  and  _224
REMARK  101  A    between atoms: _224  and  _225
REMARK  102  A    between atoms: _224  and  _227
REMARK  103  A    between atoms: _227  and  _228
REMARK  104  A    between atoms: _231  and  _233
REMARK  105  A    between atoms: _233  and  _234
REMARK  106  A    between atoms: _237  and  _239
REMARK  107  A    between atoms: _239  and  _240
REMARK  108  A    between atoms: _239  and  _242
REMARK  109  A    between atoms: _242  and  _243
REMARK  110  A    between atoms: _246  and  _248
REMARK  111  A    between atoms: _248  and  _249
REMARK  112  A    between atoms: _248  and  _251
REMARK  113  A    between atoms: _251  and  _252
REMARK  114  A    between atoms: _255  and  _257
REMARK  115  A    between atoms: _257  and  _258
REMARK  116  A    between atoms: _257  and  _260
REMARK  117  A    between atoms: _260  and  _261
REMARK  118  A    between atoms: _266  and  _268
REMARK  119  A    between atoms: _268  and  _269
REMARK  120  A    between atoms: _268  and  _271
REMARK  121  A    between atoms: _271  and  _272
REMARK  122  A    between atoms: _277  and  _279
REMARK  123  A    between atoms: _279  and  _280
REMARK  124  A    between atoms: _279  and  _282
REMARK  125  A    between atoms: _282  and  _283
REMARK  126  A    between atoms: _286  and  _288
REMARK  127  A    between atoms: _288  and  _289
REMARK  128  A    between atoms: _291  and  _293
REMARK  129  A    between atoms: _293  and  _294
REMARK  130  A    between atoms: _293  and  _296
REMARK  131  A    between atoms: _296  and  _297
REMARK  132  A    between atoms: _300  and  _302
REMARK  133  A    between atoms: _302  and  _303
REMARK  134  A    between atoms: _302  and  _305
REMARK  135  A    between atoms: _305  and  _306
REMARK  136  A    between atoms: _309  and  _311
REMARK  137  A    between atoms: _311  and  _312
REMARK  138  A    between atoms: _315  and  _317
REMARK  139  A    between atoms: _317  and  _318
REMARK  140  A    between atoms: _320  and  _322
REMARK  141  A    between atoms: _322  and  _323
REMARK  142  A    between atoms: _322  and  _325
REMARK  143  A    between atoms: _325  and  _326
REMARK  144  A    between atoms: _332  and  _334
REMARK  145  A    between atoms: _334  and  _335
REMARK  146  A    between atoms: _337  and  _339
REMARK  147  A    between atoms: _339  and  _340
REMARK  148  A    between atoms: _339  and  _342
REMARK  149  A    between atoms: _345  and  _347
REMARK  150  A    between atoms: _347  and  _348
REMARK  151  A    between atoms: _350  and  _352
REMARK  152  A    between atoms: _352  and  _353
REMARK  153  A    between atoms: _352  and  _355
REMARK  154  A    between atoms: _355  and  _356
REMARK  155  A    between atoms: _362  and  _364
REMARK  156  A    between atoms: _364  and  _365
REMARK  157  A    between atoms: _364  and  _367
REMARK  158  A    between atoms: _367  and  _368
REMARK  159  A    between atoms: _373  and  _374
REMARK  160  A    between atoms: _376  and  _378
REMARK  161  A    between atoms: _378  and  _379
REMARK  162  A    between atoms: _382  and  _384
REMARK  163  A    between atoms: _384  and  _385
REMARK  164  A    between atoms: _384  and  _387
REMARK  165  A    between atoms: _390  and  _392
REMARK  166  A    between atoms: _392  and  _393
REMARK  167  A    between atoms: _392  and  _395
REMARK  168  A    between atoms: _398  and  _400
REMARK  169  A    between atoms: _400  and  _401
REMARK  170  A    between atoms: _400  and  _403
REMARK  171  A    between atoms: _403  and  _404
REMARK  172  A    between atoms: _407  and  _409
REMARK  173  A    between atoms: _409  and  _410
REMARK  174  A    between atoms: _409  and  _412
REMARK  175  A    between atoms: _412  and  _413
REMARK  176  A    between atoms: _416  and  _418
REMARK  177  A    between atoms: _418  and  _419
REMARK  178  A    between atoms: _418  and  _421
REMARK  179  A    between atoms: _421  and  _422
REMARK  180  A    between atoms: _422  and  _423
REMARK  181  A    between atoms: _423  and  _424
REMARK  182  A    between atoms: _424  and  _425
REMARK  183  A    between atoms: _429  and  _431
REMARK  184  A    between atoms: _431  and  _432
REMARK  185  A    between atoms: _431  and  _434
REMARK  186  A    between atoms: _434  and  _435
REMARK  187  A    between atoms: _440  and  _442
REMARK  188  A    between atoms: _442  and  _443
REMARK  189  A    between atoms: _445  and  _447
REMARK  190  A    between atoms: _447  and  _448
REMARK  191  A    between atoms: _447  and  _450
REMARK  192  A    between atoms: _450  and  _451
REMARK  193  A    between atoms: _454  and  _456
REMARK  194  A    between atoms: _456  and  _457
REMARK  195  A    between atoms: _456  and  _459
REMARK  196  A    between atoms: _459  and  _460
REMARK  197  A    between atoms: _460  and  _461
REMARK  198  A    between atoms: _461  and  _462
REMARK  199  A    between atoms: _462  and  _463
REMARK  200  A    between atoms: _467  and  _469
REMARK  201  A    between atoms: _469  and  _470
REMARK  202  A    between atoms: _469  and  _472
REMARK  203  A    between atoms: _475  and  _477
REMARK  204  A    between atoms: _477  and  _478
REMARK  205  A    between atoms: _477  and  _480
REMARK  206  A    between atoms: _480  and  _481
REMARK  207  A    between atoms: _484  and  _486
REMARK  208  A    between atoms: _486  and  _487
REMARK  209  A    between atoms: _486  and  _489
REMARK  210  A    between atoms: _489  and  _490
REMARK  211  A    between atoms: _493  and  _495
REMARK  212  A    between atoms: _495  and  _496
REMARK  213  A    between atoms: _495  and  _498
REMARK  214  A    between atoms: _498  and  _499
REMARK  215  A    between atoms: _502  and  _504
REMARK  216  A    between atoms: _504  and  _505
REMARK  217  A    between atoms: _504  and  _507
REMARK  218  A    between atoms: _507  and  _508
REMARK  219  A    between atoms: _508  and  _509
REMARK  220  A    between atoms: _509  and  _510
REMARK  221  A    between atoms: _510  and  _511
REMARK  222  A    between atoms: _515  and  _517
REMARK  223  A    between atoms: _517  and  _518
REMARK  224  A    between atoms: _517  and  _520
REMARK  225  A    between atoms: _520  and  _521
REMARK  226  A    between atoms: _526  and  _527
REMARK                            x       y       z     vdW  Elec       q    Type
REMARK                         _______ _______ _______ _____ _____    ______ ____
ROOT
ATOM      1  O   HOH     1      30.046   0.384  19.266  0.00  0.00    +0.000 OA
ENDROOT
TORSDOF 0
