REMARK  Name = ../refined-set-2016/4hdf/4hdf_pocket.pdb
REMARK  220 active torsions:
REMARK  status: ('A' for Active; 'I' for Inactive)
REMARK    1  A    between atoms: _1  and  _3
REMARK    2  A    between atoms: _3  and  _4
REMARK    3  A    between atoms: _3  and  _6
REMARK    4  A    between atoms: _6  and  _7
REMARK    5  A    between atoms: _7  and  _8
REMARK    6  A    between atoms: _8  and  _9
REMARK    7  A    between atoms: _18  and  _20
REMARK    8  A    between atoms: _20  and  _21
REMARK    9  A    between atoms: _20  and  _23
REMARK   10  A    between atoms: _23  and  _24
REMARK   11  A    between atoms: _27  and  _29
REMARK   12  A    between atoms: _29  and  _30
REMARK   13  A    between atoms: _29  and  _32
REMARK   14  A    between atoms: _32  and  _33
REMARK   15  A    between atoms: _36  and  _38
REMARK   16  A    between atoms: _38  and  _39
REMARK   17  A    between atoms: _38  and  _41
REMARK   18  A    between atoms: _41  and  _42
REMARK   19  A    between atoms: _45  and  _47
REMARK   20  A    between atoms: _47  and  _48
REMARK   21  A    between atoms: _47  and  _50
REMARK   22  A    between atoms: _50  and  _51
REMARK   23  A    between atoms: _54  and  _56
REMARK   24  A    between atoms: _56  and  _57
REMARK   25  A    between atoms: _59  and  _61
REMARK   26  A    between atoms: _61  and  _62
REMARK   27  A    between atoms: _65  and  _67
REMARK   28  A    between atoms: _67  and  _68
REMARK   29  A    between atoms: _67  and  _70
REMARK   30  A    between atoms: _70  and  _71
REMARK   31  A    between atoms: _74  and  _76
REMARK   32  A    between atoms: _76  and  _77
REMARK   33  A    between atoms: _76  and  _79
REMARK   34  A    between atoms: _79  and  _80
REMARK   35  A    between atoms: _83  and  _85
REMARK   36  A    between atoms: _85  and  _86
REMARK   37  A    between atoms: _85  and  _88
REMARK   38  A    between atoms: _88  and  _89
REMARK   39  A    between atoms: _92  and  _94
REMARK   40  A    between atoms: _94  and  _95
REMARK   41  A    between atoms: _94  and  _97
REMARK   42  A    between atoms: _100  and  _102
REMARK   43  A    between atoms: _102  and  _103
REMARK   44  A    between atoms: _102  and  _105
REMARK   45  A    between atoms: _105  and  _106
REMARK   46  A    between atoms: _106  and  _107
REMARK   47  A    between atoms: _107  and  _108
REMARK   48  A    between atoms: _108  and  _109
REMARK   49  A    between atoms: _113  and  _115
REMARK   50  A    between atoms: _115  and  _116
REMARK   51  A    between atoms: _115  and  _118
REMARK   52  A    between atoms: _118  and  _119
REMARK   53  A    between atoms: _119  and  _120
REMARK   54  A    between atoms: _122  and  _124
REMARK   55  A    between atoms: _124  and  _125
REMARK   56  A    between atoms: _124  and  _127
REMARK   57  A    between atoms: _127  and  _128
REMARK   58  A    between atoms: _131  and  _133
REMARK   59  A    between atoms: _133  and  _134
REMARK   60  A    between atoms: _136  and  _138
REMARK   61  A    between atoms: _138  and  _139
REMARK   62  A    between atoms: _141  and  _143
REMARK   63  A    between atoms: _143  and  _144
REMARK   64  A    between atoms: _143  and  _146
REMARK   65  A    between atoms: _146  and  _147
REMARK   66  A    between atoms: _150  and  _152
REMARK   67  A    between atoms: _152  and  _153
REMARK   68  A    between atoms: _155  and  _157
REMARK   69  A    between atoms: _157  and  _158
REMARK   70  A    between atoms: _160  and  _162
REMARK   71  A    between atoms: _162  and  _163
REMARK   72  A    between atoms: _162  and  _165
REMARK   73  A    between atoms: _165  and  _166
REMARK   74  A    between atoms: _172  and  _174
REMARK   75  A    between atoms: _174  and  _175
REMARK   76  A    between atoms: _174  and  _177
REMARK   77  A    between atoms: _177  and  _178
REMARK   78  A    between atoms: _181  and  _183
REMARK   79  A    between atoms: _183  and  _184
REMARK   80  A    between atoms: _183  and  _186
REMARK   81  A    between atoms: _186  and  _187
REMARK   82  A    between atoms: _190  and  _192
REMARK   83  A    between atoms: _192  and  _193
REMARK   84  A    between atoms: _192  and  _195
REMARK   85  A    between atoms: _195  and  _196
REMARK   86  A    between atoms: _200  and  _201
REMARK   87  A    between atoms: _206  and  _208
REMARK   88  A    between atoms: _208  and  _209
REMARK   89  A    between atoms: _212  and  _214
REMARK   90  A    between atoms: _214  and  _215
REMARK   91  A    between atoms: _214  and  _217
REMARK   92  A    between atoms: _217  and  _218
REMARK   93  A    between atoms: _223  and  _225
REMARK   94  A    between atoms: _225  and  _226
REMARK   95  A    between atoms: _225  and  _228
REMARK   96  A    between atoms: _228  and  _229
REMARK   97  A    between atoms: _232  and  _234
REMARK   98  A    between atoms: _234  and  _235
REMARK   99  A    between atoms: _237  and  _239
REMARK  100  A    between atoms: _239  and  _240
REMARK  101  A    between atoms: _239  and  _242
REMARK  102  A    between atoms: _242  and  _243
REMARK  103  A    between atoms: _243  and  _244
REMARK  104  A    between atoms: _244  and  _245
REMARK  105  A    between atoms: _254  and  _256
REMARK  106  A    between atoms: _256  and  _257
REMARK  107  A    between atoms: _256  and  _259
REMARK  108  A    between atoms: _259  and  _260
REMARK  109  A    between atoms: _265  and  _267
REMARK  110  A    between atoms: _267  and  _268
REMARK  111  A    between atoms: _267  and  _270
REMARK  112  A    between atoms: _270  and  _271
REMARK  113  A    between atoms: _271  and  _272
REMARK  114  A    between atoms: _272  and  _273
REMARK  115  A    between atoms: _282  and  _284
REMARK  116  A    between atoms: _284  and  _285
REMARK  117  A    between atoms: _284  and  _287
REMARK  118  A    between atoms: _287  and  _288
REMARK  119  A    between atoms: _291  and  _293
REMARK  120  A    between atoms: _293  and  _294
REMARK  121  A    between atoms: _293  and  _296
REMARK  122  A    between atoms: _296  and  _297
REMARK  123  A    between atoms: _300  and  _302
REMARK  124  A    between atoms: _302  and  _303
REMARK  125  A    between atoms: _302  and  _305
REMARK  126  A    between atoms: _305  and  _306
REMARK  127  A    between atoms: _309  and  _311
REMARK  128  A    between atoms: _311  and  _312
REMARK  129  A    between atoms: _311  and  _314
REMARK  130  A    between atoms: _314  and  _315
REMARK  131  A    between atoms: _318  and  _320
REMARK  132  A    between atoms: _320  and  _321
REMARK  133  A    between atoms: _323  and  _325
REMARK  134  A    between atoms: _325  and  _326
REMARK  135  A    between atoms: _329  and  _331
REMARK  136  A    between atoms: _331  and  _332
REMARK  137  A    between atoms: _331  and  _334
REMARK  138  A    between atoms: _334  and  _335
REMARK  139  A    between atoms: _338  and  _340
REMARK  140  A    between atoms: _340  and  _341
REMARK  141  A    between atoms: _340  and  _343
REMARK  142  A    between atoms: _343  and  _344
REMARK  143  A    between atoms: _347  and  _349
REMARK  144  A    between atoms: _349  and  _350
REMARK  145  A    between atoms: _349  and  _352
REMARK  146  A    between atoms: _352  and  _353
REMARK  147  A    between atoms: _356  and  _358
REMARK  148  A    between atoms: _358  and  _359
REMARK  149  A    between atoms: _358  and  _361
REMARK  150  A    between atoms: _364  and  _366
REMARK  151  A    between atoms: _366  and  _367
REMARK  152  A    between atoms: _366  and  _369
REMARK  153  A    between atoms: _369  and  _370
REMARK  154  A    between atoms: _370  and  _371
REMARK  155  A    between atoms: _371  and  _372
REMARK  156  A    between atoms: _372  and  _373
REMARK  157  A    between atoms: _377  and  _379
REMARK  158  A    between atoms: _379  and  _380
REMARK  159  A    between atoms: _379  and  _382
REMARK  160  A    between atoms: _382  and  _383
REMARK  161  A    between atoms: _383  and  _384
REMARK  162  A    between atoms: _386  and  _388
REMARK  163  A    between atoms: _388  and  _389
REMARK  164  A    between atoms: _388  and  _391
REMARK  165  A    between atoms: _391  and  _392
REMARK  166  A    between atoms: _395  and  _397
REMARK  167  A    between atoms: _397  and  _398
REMARK  168  A    between atoms: _400  and  _402
REMARK  169  A    between atoms: _402  and  _403
REMARK  170  A    between atoms: _405  and  _407
REMARK  171  A    between atoms: _407  and  _408
REMARK  172  A    between atoms: _407  and  _410
REMARK  173  A    between atoms: _410  and  _411
REMARK  174  A    between atoms: _414  and  _416
REMARK  175  A    between atoms: _416  and  _417
REMARK  176  A    between atoms: _419  and  _421
REMARK  177  A    between atoms: _421  and  _422
REMARK  178  A    between atoms: _424  and  _426
REMARK  179  A    between atoms: _426  and  _427
REMARK  180  A    between atoms: _426  and  _429
REMARK  181  A    between atoms: _429  and  _430
REMARK  182  A    between atoms: _433  and  _435
REMARK  183  A    between atoms: _435  and  _436
REMARK  184  A    between atoms: _435  and  _438
REMARK  185  A    between atoms: _441  and  _443
REMARK  186  A    between atoms: _443  and  _444
REMARK  187  A    between atoms: _443  and  _446
REMARK  188  A    between atoms: _446  and  _447
REMARK  189  A    between atoms: _451  and  _452
REMARK  190  A    between atoms: _457  and  _459
REMARK  191  A    between atoms: _459  and  _460
REMARK  192  A    between atoms: _459  and  _462
REMARK  193  A    between atoms: _462  and  _463
REMARK  194  A    between atoms: _467  and  _468
REMARK  195  A    between atoms: _473  and  _475
REMARK  196  A    between atoms: _475  and  _476
REMARK  197  A    between atoms: _479  and  _481
REMARK  198  A    between atoms: _481  and  _482
REMARK  199  A    between atoms: _481  and  _484
REMARK  200  A    between atoms: _484  and  _485
REMARK  201  A    between atoms: _490  and  _492
REMARK  202  A    between atoms: _492  and  _493
REMARK  203  A    between atoms: _492  and  _495
REMARK  204  A    between atoms: _495  and  _496
REMARK  205  A    between atoms: _499  and  _501
REMARK  206  A    between atoms: _501  and  _502
REMARK  207  A    between atoms: _501  and  _504
REMARK  208  A    between atoms: _504  and  _505
REMARK  209  A    between atoms: _508  and  _510
REMARK  210  A    between atoms: _510  and  _511
REMARK  211  A    between atoms: _513  and  _515
REMARK  212  A    between atoms: _515  and  _516
REMARK  213  A    between atoms: _515  and  _518
REMARK  214  A    between atoms: _518  and  _519
REMARK  215  A    between atoms: _519  and  _520
REMARK  216  A    between atoms: _520  and  _521
REMARK  217  A    between atoms: _530  and  _532
REMARK  218  A    between atoms: _532  and  _533
REMARK  219  A    between atoms: _532  and  _535
REMARK  220  A    between atoms: _535  and  _536
REMARK                            x       y       z     vdW  Elec       q    Type
REMARK                         _______ _______ _______ _____ _____    ______ ____
ROOT
ATOM      1  NE  ARG A   1      23.401 -22.560 -15.325  0.00  0.00    -0.265 N 
ATOM      2  CZ  ARG A   1      23.166 -23.613 -14.544  0.00  0.00    +0.342 C 
ATOM      3  NH2 ARG A   1      23.501 -23.547 -13.271  0.00  0.00    -0.292 N 
ATOM      4 HH21 ARG A   1      23.326 -24.358 -12.644  0.00  0.00    +0.255 HD
ATOM      5 HH22 ARG A   1      23.940 -22.684 -12.893  0.00  0.00    +0.255 HD
ATOM      6  NH1 ARG A   1      22.615 -24.691 -15.066  0.00  0.00    -0.292 N 
ATOM      7 HH11 ARG A   1      22.426 -25.520 -14.467  0.00  0.00    +0.255 HD
ATOM      8 HH12 ARG A   1      22.369 -24.712 -16.076  0.00  0.00    +0.255 HD
ATOM      9  HE  ARG A   1      23.146 -22.649 -16.329  0.00  0.00    +0.259 HD
ENDROOT
BRANCH   1  10
ATOM     10  CD  ARG A   1      23.983 -21.296 -14.898  0.00  0.00    +0.174 C 
BRANCH  10  11
ATOM     11  CG  ARG A   1      24.388 -20.456 -16.119  0.00  0.00    +0.045 C 
BRANCH  11  12
ATOM     12  CB  ARG A   1      24.919 -19.098 -15.715  0.00  0.00    +0.029 C 
BRANCH  12  13
ATOM     13  CA  ARG A   1      25.496 -18.300 -16.878  0.00  0.00    +0.133 C 
BRANCH  13  14
ATOM     14  N   ARG A   1      26.722 -18.954 -17.390  0.00  0.00    -0.239 NA
ATOM     15  H   ARG A   1      27.054 -19.847 -16.972  0.00  0.00    +0.142 HD
ENDBRANCH  13  14
BRANCH  13  16
ATOM     16  C   ARG A   1      25.783 -16.886 -16.414  0.00  0.00    +0.224 C 
ATOM     17  O   ARG A   1      26.773 -16.655 -15.705  0.00  0.00    -0.287 OA
ENDBRANCH  13  16
ENDBRANCH  12  13
ENDBRANCH  11  12
ENDBRANCH  10  11
ENDBRANCH   1  10
TORSDOF 6
REMARK  Name = ../refined-set-2016/4hdf/4hdf_pocket.pdb
REMARK  220 active torsions:
REMARK  status: ('A' for Active; 'I' for Inactive)
REMARK    1  A    between atoms: _1  and  _3
REMARK    2  A    between atoms: _3  and  _4
REMARK    3  A    between atoms: _3  and  _6
REMARK    4  A    between atoms: _6  and  _7
REMARK    5  A    between atoms: _7  and  _8
REMARK    6  A    between atoms: _8  and  _9
REMARK    7  A    between atoms: _18  and  _20
REMARK    8  A    between atoms: _20  and  _21
REMARK    9  A    between atoms: _20  and  _23
REMARK   10  A    between atoms: _23  and  _24
REMARK   11  A    between atoms: _27  and  _29
REMARK   12  A    between atoms: _29  and  _30
REMARK   13  A    between atoms: _29  and  _32
REMARK   14  A    between atoms: _32  and  _33
REMARK   15  A    between atoms: _36  and  _38
REMARK   16  A    between atoms: _38  and  _39
REMARK   17  A    between atoms: _38  and  _41
REMARK   18  A    between atoms: _41  and  _42
REMARK   19  A    between atoms: _45  and  _47
REMARK   20  A    between atoms: _47  and  _48
REMARK   21  A    between atoms: _47  and  _50
REMARK   22  A    between atoms: _50  and  _51
REMARK   23  A    between atoms: _54  and  _56
REMARK   24  A    between atoms: _56  and  _57
REMARK   25  A    between atoms: _59  and  _61
REMARK   26  A    between atoms: _61  and  _62
REMARK   27  A    between atoms: _65  and  _67
REMARK   28  A    between atoms: _67  and  _68
REMARK   29  A    between atoms: _67  and  _70
REMARK   30  A    between atoms: _70  and  _71
REMARK   31  A    between atoms: _74  and  _76
REMARK   32  A    between atoms: _76  and  _77
REMARK   33  A    between atoms: _76  and  _79
REMARK   34  A    between atoms: _79  and  _80
REMARK   35  A    between atoms: _83  and  _85
REMARK   36  A    between atoms: _85  and  _86
REMARK   37  A    between atoms: _85  and  _88
REMARK   38  A    between atoms: _88  and  _89
REMARK   39  A    between atoms: _92  and  _94
REMARK   40  A    between atoms: _94  and  _95
REMARK   41  A    between atoms: _94  and  _97
REMARK   42  A    between atoms: _100  and  _102
REMARK   43  A    between atoms: _102  and  _103
REMARK   44  A    between atoms: _102  and  _105
REMARK   45  A    between atoms: _105  and  _106
REMARK   46  A    between atoms: _106  and  _107
REMARK   47  A    between atoms: _107  and  _108
REMARK   48  A    between atoms: _108  and  _109
REMARK   49  A    between atoms: _113  and  _115
REMARK   50  A    between atoms: _115  and  _116
REMARK   51  A    between atoms: _115  and  _118
REMARK   52  A    between atoms: _118  and  _119
REMARK   53  A    between atoms: _119  and  _120
REMARK   54  A    between atoms: _122  and  _124
REMARK   55  A    between atoms: _124  and  _125
REMARK   56  A    between atoms: _124  and  _127
REMARK   57  A    between atoms: _127  and  _128
REMARK   58  A    between atoms: _131  and  _133
REMARK   59  A    between atoms: _133  and  _134
REMARK   60  A    between atoms: _136  and  _138
REMARK   61  A    between atoms: _138  and  _139
REMARK   62  A    between atoms: _141  and  _143
REMARK   63  A    between atoms: _143  and  _144
REMARK   64  A    between atoms: _143  and  _146
REMARK   65  A    between atoms: _146  and  _147
REMARK   66  A    between atoms: _150  and  _152
REMARK   67  A    between atoms: _152  and  _153
REMARK   68  A    between atoms: _155  and  _157
REMARK   69  A    between atoms: _157  and  _158
REMARK   70  A    between atoms: _160  and  _162
REMARK   71  A    between atoms: _162  and  _163
REMARK   72  A    between atoms: _162  and  _165
REMARK   73  A    between atoms: _165  and  _166
REMARK   74  A    between atoms: _172  and  _174
REMARK   75  A    between atoms: _174  and  _175
REMARK   76  A    between atoms: _174  and  _177
REMARK   77  A    between atoms: _177  and  _178
REMARK   78  A    between atoms: _181  and  _183
REMARK   79  A    between atoms: _183  and  _184
REMARK   80  A    between atoms: _183  and  _186
REMARK   81  A    between atoms: _186  and  _187
REMARK   82  A    between atoms: _190  and  _192
REMARK   83  A    between atoms: _192  and  _193
REMARK   84  A    between atoms: _192  and  _195
REMARK   85  A    between atoms: _195  and  _196
REMARK   86  A    between atoms: _200  and  _201
REMARK   87  A    between atoms: _206  and  _208
REMARK   88  A    between atoms: _208  and  _209
REMARK   89  A    between atoms: _212  and  _214
REMARK   90  A    between atoms: _214  and  _215
REMARK   91  A    between atoms: _214  and  _217
REMARK   92  A    between atoms: _217  and  _218
REMARK   93  A    between atoms: _223  and  _225
REMARK   94  A    between atoms: _225  and  _226
REMARK   95  A    between atoms: _225  and  _228
REMARK   96  A    between atoms: _228  and  _229
REMARK   97  A    between atoms: _232  and  _234
REMARK   98  A    between atoms: _234  and  _235
REMARK   99  A    between atoms: _237  and  _239
REMARK  100  A    between atoms: _239  and  _240
REMARK  101  A    between atoms: _239  and  _242
REMARK  102  A    between atoms: _242  and  _243
REMARK  103  A    between atoms: _243  and  _244
REMARK  104  A    between atoms: _244  and  _245
REMARK  105  A    between atoms: _254  and  _256
REMARK  106  A    between atoms: _256  and  _257
REMARK  107  A    between atoms: _256  and  _259
REMARK  108  A    between atoms: _259  and  _260
REMARK  109  A    between atoms: _265  and  _267
REMARK  110  A    between atoms: _267  and  _268
REMARK  111  A    between atoms: _267  and  _270
REMARK  112  A    between atoms: _270  and  _271
REMARK  113  A    between atoms: _271  and  _272
REMARK  114  A    between atoms: _272  and  _273
REMARK  115  A    between atoms: _282  and  _284
REMARK  116  A    between atoms: _284  and  _285
REMARK  117  A    between atoms: _284  and  _287
REMARK  118  A    between atoms: _287  and  _288
REMARK  119  A    between atoms: _291  and  _293
REMARK  120  A    between atoms: _293  and  _294
REMARK  121  A    between atoms: _293  and  _296
REMARK  122  A    between atoms: _296  and  _297
REMARK  123  A    between atoms: _300  and  _302
REMARK  124  A    between atoms: _302  and  _303
REMARK  125  A    between atoms: _302  and  _305
REMARK  126  A    between atoms: _305  and  _306
REMARK  127  A    between atoms: _309  and  _311
REMARK  128  A    between atoms: _311  and  _312
REMARK  129  A    between atoms: _311  and  _314
REMARK  130  A    between atoms: _314  and  _315
REMARK  131  A    between atoms: _318  and  _320
REMARK  132  A    between atoms: _320  and  _321
REMARK  133  A    between atoms: _323  and  _325
REMARK  134  A    between atoms: _325  and  _326
REMARK  135  A    between atoms: _329  and  _331
REMARK  136  A    between atoms: _331  and  _332
REMARK  137  A    between atoms: _331  and  _334
REMARK  138  A    between atoms: _334  and  _335
REMARK  139  A    between atoms: _338  and  _340
REMARK  140  A    between atoms: _340  and  _341
REMARK  141  A    between atoms: _340  and  _343
REMARK  142  A    between atoms: _343  and  _344
REMARK  143  A    between atoms: _347  and  _349
REMARK  144  A    between atoms: _349  and  _350
REMARK  145  A    between atoms: _349  and  _352
REMARK  146  A    between atoms: _352  and  _353
REMARK  147  A    between atoms: _356  and  _358
REMARK  148  A    between atoms: _358  and  _359
REMARK  149  A    between atoms: _358  and  _361
REMARK  150  A    between atoms: _364  and  _366
REMARK  151  A    between atoms: _366  and  _367
REMARK  152  A    between atoms: _366  and  _369
REMARK  153  A    between atoms: _369  and  _370
REMARK  154  A    between atoms: _370  and  _371
REMARK  155  A    between atoms: _371  and  _372
REMARK  156  A    between atoms: _372  and  _373
REMARK  157  A    between atoms: _377  and  _379
REMARK  158  A    between atoms: _379  and  _380
REMARK  159  A    between atoms: _379  and  _382
REMARK  160  A    between atoms: _382  and  _383
REMARK  161  A    between atoms: _383  and  _384
REMARK  162  A    between atoms: _386  and  _388
REMARK  163  A    between atoms: _388  and  _389
REMARK  164  A    between atoms: _388  and  _391
REMARK  165  A    between atoms: _391  and  _392
REMARK  166  A    between atoms: _395  and  _397
REMARK  167  A    between atoms: _397  and  _398
REMARK  168  A    between atoms: _400  and  _402
REMARK  169  A    between atoms: _402  and  _403
REMARK  170  A    between atoms: _405  and  _407
REMARK  171  A    between atoms: _407  and  _408
REMARK  172  A    between atoms: _407  and  _410
REMARK  173  A    between atoms: _410  and  _411
REMARK  174  A    between atoms: _414  and  _416
REMARK  175  A    between atoms: _416  and  _417
REMARK  176  A    between atoms: _419  and  _421
REMARK  177  A    between atoms: _421  and  _422
REMARK  178  A    between atoms: _424  and  _426
REMARK  179  A    between atoms: _426  and  _427
REMARK  180  A    between atoms: _426  and  _429
REMARK  181  A    between atoms: _429  and  _430
REMARK  182  A    between atoms: _433  and  _435
REMARK  183  A    between atoms: _435  and  _436
REMARK  184  A    between atoms: _435  and  _438
REMARK  185  A    between atoms: _441  and  _443
REMARK  186  A    between atoms: _443  and  _444
REMARK  187  A    between atoms: _443  and  _446
REMARK  188  A    between atoms: _446  and  _447
REMARK  189  A    between atoms: _451  and  _452
REMARK  190  A    between atoms: _457  and  _459
REMARK  191  A    between atoms: _459  and  _460
REMARK  192  A    between atoms: _459  and  _462
REMARK  193  A    between atoms: _462  and  _463
REMARK  194  A    between atoms: _467  and  _468
REMARK  195  A    between atoms: _473  and  _475
REMARK  196  A    between atoms: _475  and  _476
REMARK  197  A    between atoms: _479  and  _481
REMARK  198  A    between atoms: _481  and  _482
REMARK  199  A    between atoms: _481  and  _484
REMARK  200  A    between atoms: _484  and  _485
REMARK  201  A    between atoms: _490  and  _492
REMARK  202  A    between atoms: _492  and  _493
REMARK  203  A    between atoms: _492  and  _495
REMARK  204  A    between atoms: _495  and  _496
REMARK  205  A    between atoms: _499  and  _501
REMARK  206  A    between atoms: _501  and  _502
REMARK  207  A    between atoms: _501  and  _504
REMARK  208  A    between atoms: _504  and  _505
REMARK  209  A    between atoms: _508  and  _510
REMARK  210  A    between atoms: _510  and  _511
REMARK  211  A    between atoms: _513  and  _515
REMARK  212  A    between atoms: _515  and  _516
REMARK  213  A    between atoms: _515  and  _518
REMARK  214  A    between atoms: _518  and  _519
REMARK  215  A    between atoms: _519  and  _520
REMARK  216  A    between atoms: _520  and  _521
REMARK  217  A    between atoms: _530  and  _532
REMARK  218  A    between atoms: _532  and  _533
REMARK  219  A    between atoms: _532  and  _535
REMARK  220  A    between atoms: _535  and  _536
REMARK                            x       y       z     vdW  Elec       q    Type
REMARK                         _______ _______ _______ _____ _____    ______ ____
ROOT
ATOM      1  C   GLY A   5      12.390 -14.912 -19.897  0.00  0.00    +0.243 C 
ATOM      2  N   ALA A   6      12.637 -14.161 -18.820  0.00  0.00    -0.297 N 
ATOM      3  H   ALA A   6      13.530 -13.629 -18.779  0.00  0.00    +0.150 HD
ATOM      4  O   GLY A   5      11.339 -15.572 -20.030  0.00  0.00    -0.273 OA
ENDROOT
BRANCH   2   5
ATOM      5  CA  ALA A   6      11.700 -14.054 -17.689  0.00  0.00    +0.149 C 
ATOM      6  CB  ALA A   6      12.475 -14.218 -16.395  0.00  0.00    +0.031 C 
BRANCH   5   7
ATOM      7  C   ALA A   6      11.023 -12.699 -17.687  0.00  0.00    +0.241 C 
ATOM      8  O   ALA A   6      11.706 -11.666 -17.648  0.00  0.00    -0.273 OA
ATOM      9  N   ASP A   7       9.695 -12.693 -17.722  0.00  0.00    -0.297 N 
ATOM     10  H   ASP A   7       9.175 -13.589 -17.814  0.00  0.00    +0.150 HD
BRANCH   9  11
ATOM     11  CA  ASP A   7       8.970 -11.445 -17.632  0.00  0.00    +0.160 C 
BRANCH  11  12
ATOM     12  C   ASP A   7       9.203 -10.769 -16.274  0.00  0.00    +0.241 C 
ATOM     13  N   ASP A   8       9.225 -11.601 -15.241  0.00  0.00    -0.297 N 
ATOM     14  H   ASP A   8       9.289 -12.617 -15.455  0.00  0.00    +0.150 HD
ATOM     15  O   ASP A   7       9.327  -9.550 -16.168  0.00  0.00    -0.273 OA
BRANCH  13  16
ATOM     16  CA  ASP A   8       9.168 -11.228 -13.849  0.00  0.00    +0.160 C 
BRANCH  16  17
ATOM     17  C   ASP A   8      10.424 -11.707 -13.098  0.00  0.00    +0.241 C 
ATOM     18  N   THR A   9      10.748 -11.079 -12.005  0.00  0.00    -0.295 N 
ATOM     19  H   THR A   9      10.162 -10.254 -11.764  0.00  0.00    +0.150 HD
ATOM     20  O   ASP A   8      11.079 -12.666 -13.489  0.00  0.00    -0.273 OA
BRANCH  18  21
ATOM     21  CA  THR A   9      11.821 -11.384 -11.083  0.00  0.00    +0.176 C 
BRANCH  21  22
ATOM     22  C   THR A   9      11.288 -12.348 -10.018  0.00  0.00    +0.243 C 
ATOM     23  O   THR A   9      10.245 -12.095  -9.413  0.00  0.00    -0.273 OA
ATOM     24  N   VAL A  10      11.992 -13.476  -9.838  0.00  0.00    -0.298 N 
ATOM     25  H   VAL A  10      12.891 -13.588 -10.348  0.00  0.00    +0.150 HD
BRANCH  24  26
ATOM     26  CA  VAL A  10      11.549 -14.554  -8.955  0.00  0.00    +0.137 C 
BRANCH  26  27
ATOM     27  CB  VAL A  10      11.045 -15.770  -9.753  0.00  0.00    +0.026 C 
ATOM     28  CG2 VAL A  10      10.316 -16.722  -8.788  0.00  0.00    +0.002 C 
ATOM     29  CG1 VAL A  10      10.146 -15.361 -10.913  0.00  0.00    +0.002 C 
ENDBRANCH  26  27
BRANCH  26  30
ATOM     30  C   VAL A  10      12.721 -14.913  -8.043  0.00  0.00    +0.227 C 
ATOM     31  O   VAL A  10      13.808 -15.262  -8.521  0.00  0.00    -0.286 OA
ENDBRANCH  26  30
ENDBRANCH  24  26
ENDBRANCH  21  22
BRANCH  21  32
ATOM     32  CB  THR A   9      12.350 -10.075 -10.477  0.00  0.00    +0.137 C 
ATOM     33  CG2 THR A   9      13.379 -10.334  -9.385  0.00  0.00    +0.034 C 
BRANCH  32  34
ATOM     34  OG1 THR A   9      12.960  -9.318 -11.544  0.00  0.00    -0.382 OA
ATOM     35  HG1 THR A   9      12.283  -9.128 -12.241  0.00  0.00    +0.210 HD
ENDBRANCH  32  34
ENDBRANCH  21  32
ENDBRANCH  18  21
ENDBRANCH  16  17
BRANCH  16  36
ATOM     36  CB  ASP A   8       7.925 -11.863 -13.200  0.00  0.00    +0.143 C 
BRANCH  36  37
ATOM     37  CG  ASP A   8       6.580 -11.426 -13.747  0.00  0.00    +0.367 C 
ATOM     38  OD2 ASP A   8       5.550 -12.095 -13.529  0.00  0.00    -0.246 OA
ATOM     39  OD1 ASP A   8       6.502 -10.378 -14.390  0.00  0.00    -0.246 OA
ENDBRANCH  36  37
ENDBRANCH  16  36
ENDBRANCH  13  16
ENDBRANCH  11  12
BRANCH  11  40
ATOM     40  CB  ASP A   7       7.459 -11.651 -17.810  0.00  0.00    +0.143 C 
BRANCH  40  41
ATOM     41  CG  ASP A   7       7.003 -12.244 -19.129  0.00  0.00    +0.367 C 
ATOM     42  OD2 ASP A   7       5.835 -12.722 -19.088  0.00  0.00    -0.246 OA
ATOM     43  OD1 ASP A   7       7.727 -12.156 -20.128  0.00  0.00    -0.246 OA
ENDBRANCH  40  41
ENDBRANCH  11  40
ENDBRANCH   9  11
ENDBRANCH   5   7
ENDBRANCH   2   5
BRANCH   1  44
ATOM     44  CA  GLY A   5      13.414 -14.933 -20.986  0.00  0.00    +0.176 C 
BRANCH  44  46
ATOM     45  C   THR A   4      14.635 -12.813 -20.990  0.00  0.00    +0.243 C 
ATOM     46  N   GLY A   5      14.596 -14.108 -20.732  0.00  0.00    -0.295 N 
ATOM     47  H   GLY A   5      15.442 -14.561 -20.331  0.00  0.00    +0.150 HD
ATOM     48  O   THR A   4      13.699 -12.227 -21.535  0.00  0.00    -0.273 OA
BRANCH  45  49
ATOM     49  CA  THR A   4      15.895 -12.039 -20.627  0.00  0.00    +0.176 C 
BRANCH  49  52
ATOM     50  C   ASP A   3      16.285 -12.884 -18.400  0.00  0.00    +0.241 C 
ATOM     51  O   ASP A   3      15.181 -12.521 -18.015  0.00  0.00    -0.273 OA
ATOM     52  N   THR A   4      16.739 -12.748 -19.678  0.00  0.00    -0.295 N 
ATOM     53  H   THR A   4      17.659 -13.139 -19.965  0.00  0.00    +0.150 HD
BRANCH  50  54
ATOM     54  CA  ASP A   3      17.254 -13.593 -17.459  0.00  0.00    +0.160 C 
BRANCH  54  56
ATOM     55  C   LEU A   2      19.416 -12.757 -16.653  0.00  0.00    +0.241 C 
ATOM     56  N   ASP A   3      18.078 -12.685 -16.666  0.00  0.00    -0.297 N 
ATOM     57  H   ASP A   3      17.610 -11.956 -16.091  0.00  0.00    +0.150 HD
ATOM     58  O   LEU A   2      20.079 -13.407 -17.491  0.00  0.00    -0.273 OA
BRANCH  55  59
ATOM     59  CA  LEU A   2      20.141 -12.041 -15.520  0.00  0.00    +0.149 C 
BRANCH  59  62
ATOM     60  C   LEU A   1      19.998 -13.734 -13.759  0.00  0.00    +0.238 C 
ATOM     61  O   LEU A   1      18.823 -13.461 -13.538  0.00  0.00    -0.274 OA
ATOM     62  N   LEU A   2      20.696 -13.050 -14.632  0.00  0.00    -0.297 N 
ATOM     63  H   LEU A   2      21.716 -13.242 -14.694  0.00  0.00    +0.150 HD
BRANCH  60  64
ATOM     64  CA  LEU A   1      20.640 -14.914 -13.026  0.00  0.00    +0.145 C 
BRANCH  64  65
ATOM     65  N   LEU A   1      20.425 -14.801 -11.590  0.00  0.00    -0.238 NA
ATOM     66  H   LEU A   1      19.555 -15.206 -11.189  0.00  0.00    +0.142 HD
ENDBRANCH  64  65
BRANCH  64  67
ATOM     67  CB  LEU A   1      20.142 -16.357 -13.332  0.00  0.00    +0.026 C 
BRANCH  67  68
ATOM     68  CG  LEU A   1      20.167 -16.796 -14.770  0.00  0.00    +0.002 C 
ATOM     69  CD2 LEU A   1      19.305 -18.008 -15.011  0.00  0.00    +0.000 C 
ATOM     70  CD1 LEU A   1      21.612 -17.033 -15.165  0.00  0.00    +0.000 C 
ENDBRANCH  67  68
ENDBRANCH  64  67
ENDBRANCH  60  64
ENDBRANCH  59  62
BRANCH  59  71
ATOM     71  CB  LEU A   2      21.233 -11.123 -16.068  0.00  0.00    +0.029 C 
BRANCH  71  72
ATOM     72  CG  LEU A   2      22.066 -10.361 -15.045  0.00  0.00    +0.002 C 
ATOM     73  CD2 LEU A   2      21.246  -9.483 -14.111  0.00  0.00    +0.000 C 
ATOM     74  CD1 LEU A   2      23.079  -9.514 -15.787  0.00  0.00    +0.000 C 
ENDBRANCH  71  72
ENDBRANCH  59  71
ENDBRANCH  55  59
ENDBRANCH  54  56
BRANCH  54  75
ATOM     75  CB  ASP A   3      16.460 -14.518 -16.540  0.00  0.00    +0.143 C 
BRANCH  75  76
ATOM     76  CG  ASP A   3      15.796 -15.697 -17.242  0.00  0.00    +0.367 C 
ATOM     77  OD2 ASP A   3      15.278 -16.602 -16.532  0.00  0.00    -0.246 OA
ATOM     78  OD1 ASP A   3      15.794 -15.678 -18.488  0.00  0.00    -0.246 OA
ENDBRANCH  75  76
ENDBRANCH  54  75
ENDBRANCH  50  54
ENDBRANCH  49  52
BRANCH  49  79
ATOM     79  CB  THR A   4      16.683 -11.713 -21.916  0.00  0.00    +0.137 C 
ATOM     80  CG2 THR A   4      17.842 -10.794 -21.594  0.00  0.00    +0.034 C 
BRANCH  79  81
ATOM     81  OG1 THR A   4      17.162 -12.921 -22.506  0.00  0.00    -0.382 OA
ATOM     82  HG1 THR A   4      16.394 -13.505 -22.729  0.00  0.00    +0.210 HD
ENDBRANCH  79  81
ENDBRANCH  49  79
ENDBRANCH  45  49
ENDBRANCH  44  46
ENDBRANCH   1  44
TORSDOF 35
REMARK  Name = ../refined-set-2016/4hdf/4hdf_pocket.pdb
REMARK  220 active torsions:
REMARK  status: ('A' for Active; 'I' for Inactive)
REMARK    1  A    between atoms: _1  and  _3
REMARK    2  A    between atoms: _3  and  _4
REMARK    3  A    between atoms: _3  and  _6
REMARK    4  A    between atoms: _6  and  _7
REMARK    5  A    between atoms: _7  and  _8
REMARK    6  A    between atoms: _8  and  _9
REMARK    7  A    between atoms: _18  and  _20
REMARK    8  A    between atoms: _20  and  _21
REMARK    9  A    between atoms: _20  and  _23
REMARK   10  A    between atoms: _23  and  _24
REMARK   11  A    between atoms: _27  and  _29
REMARK   12  A    between atoms: _29  and  _30
REMARK   13  A    between atoms: _29  and  _32
REMARK   14  A    between atoms: _32  and  _33
REMARK   15  A    between atoms: _36  and  _38
REMARK   16  A    between atoms: _38  and  _39
REMARK   17  A    between atoms: _38  and  _41
REMARK   18  A    between atoms: _41  and  _42
REMARK   19  A    between atoms: _45  and  _47
REMARK   20  A    between atoms: _47  and  _48
REMARK   21  A    between atoms: _47  and  _50
REMARK   22  A    between atoms: _50  and  _51
REMARK   23  A    between atoms: _54  and  _56
REMARK   24  A    between atoms: _56  and  _57
REMARK   25  A    between atoms: _59  and  _61
REMARK   26  A    between atoms: _61  and  _62
REMARK   27  A    between atoms: _65  and  _67
REMARK   28  A    between atoms: _67  and  _68
REMARK   29  A    between atoms: _67  and  _70
REMARK   30  A    between atoms: _70  and  _71
REMARK   31  A    between atoms: _74  and  _76
REMARK   32  A    between atoms: _76  and  _77
REMARK   33  A    between atoms: _76  and  _79
REMARK   34  A    between atoms: _79  and  _80
REMARK   35  A    between atoms: _83  and  _85
REMARK   36  A    between atoms: _85  and  _86
REMARK   37  A    between atoms: _85  and  _88
REMARK   38  A    between atoms: _88  and  _89
REMARK   39  A    between atoms: _92  and  _94
REMARK   40  A    between atoms: _94  and  _95
REMARK   41  A    between atoms: _94  and  _97
REMARK   42  A    between atoms: _100  and  _102
REMARK   43  A    between atoms: _102  and  _103
REMARK   44  A    between atoms: _102  and  _105
REMARK   45  A    between atoms: _105  and  _106
REMARK   46  A    between atoms: _106  and  _107
REMARK   47  A    between atoms: _107  and  _108
REMARK   48  A    between atoms: _108  and  _109
REMARK   49  A    between atoms: _113  and  _115
REMARK   50  A    between atoms: _115  and  _116
REMARK   51  A    between atoms: _115  and  _118
REMARK   52  A    between atoms: _118  and  _119
REMARK   53  A    between atoms: _119  and  _120
REMARK   54  A    between atoms: _122  and  _124
REMARK   55  A    between atoms: _124  and  _125
REMARK   56  A    between atoms: _124  and  _127
REMARK   57  A    between atoms: _127  and  _128
REMARK   58  A    between atoms: _131  and  _133
REMARK   59  A    between atoms: _133  and  _134
REMARK   60  A    between atoms: _136  and  _138
REMARK   61  A    between atoms: _138  and  _139
REMARK   62  A    between atoms: _141  and  _143
REMARK   63  A    between atoms: _143  and  _144
REMARK   64  A    between atoms: _143  and  _146
REMARK   65  A    between atoms: _146  and  _147
REMARK   66  A    between atoms: _150  and  _152
REMARK   67  A    between atoms: _152  and  _153
REMARK   68  A    between atoms: _155  and  _157
REMARK   69  A    between atoms: _157  and  _158
REMARK   70  A    between atoms: _160  and  _162
REMARK   71  A    between atoms: _162  and  _163
REMARK   72  A    between atoms: _162  and  _165
REMARK   73  A    between atoms: _165  and  _166
REMARK   74  A    between atoms: _172  and  _174
REMARK   75  A    between atoms: _174  and  _175
REMARK   76  A    between atoms: _174  and  _177
REMARK   77  A    between atoms: _177  and  _178
REMARK   78  A    between atoms: _181  and  _183
REMARK   79  A    between atoms: _183  and  _184
REMARK   80  A    between atoms: _183  and  _186
REMARK   81  A    between atoms: _186  and  _187
REMARK   82  A    between atoms: _190  and  _192
REMARK   83  A    between atoms: _192  and  _193
REMARK   84  A    between atoms: _192  and  _195
REMARK   85  A    between atoms: _195  and  _196
REMARK   86  A    between atoms: _200  and  _201
REMARK   87  A    between atoms: _206  and  _208
REMARK   88  A    between atoms: _208  and  _209
REMARK   89  A    between atoms: _212  and  _214
REMARK   90  A    between atoms: _214  and  _215
REMARK   91  A    between atoms: _214  and  _217
REMARK   92  A    between atoms: _217  and  _218
REMARK   93  A    between atoms: _223  and  _225
REMARK   94  A    between atoms: _225  and  _226
REMARK   95  A    between atoms: _225  and  _228
REMARK   96  A    between atoms: _228  and  _229
REMARK   97  A    between atoms: _232  and  _234
REMARK   98  A    between atoms: _234  and  _235
REMARK   99  A    between atoms: _237  and  _239
REMARK  100  A    between atoms: _239  and  _240
REMARK  101  A    between atoms: _239  and  _242
REMARK  102  A    between atoms: _242  and  _243
REMARK  103  A    between atoms: _243  and  _244
REMARK  104  A    between atoms: _244  and  _245
REMARK  105  A    between atoms: _254  and  _256
REMARK  106  A    between atoms: _256  and  _257
REMARK  107  A    between atoms: _256  and  _259
REMARK  108  A    between atoms: _259  and  _260
REMARK  109  A    between atoms: _265  and  _267
REMARK  110  A    between atoms: _267  and  _268
REMARK  111  A    between atoms: _267  and  _270
REMARK  112  A    between atoms: _270  and  _271
REMARK  113  A    between atoms: _271  and  _272
REMARK  114  A    between atoms: _272  and  _273
REMARK  115  A    between atoms: _282  and  _284
REMARK  116  A    between atoms: _284  and  _285
REMARK  117  A    between atoms: _284  and  _287
REMARK  118  A    between atoms: _287  and  _288
REMARK  119  A    between atoms: _291  and  _293
REMARK  120  A    between atoms: _293  and  _294
REMARK  121  A    between atoms: _293  and  _296
REMARK  122  A    between atoms: _296  and  _297
REMARK  123  A    between atoms: _300  and  _302
REMARK  124  A    between atoms: _302  and  _303
REMARK  125  A    between atoms: _302  and  _305
REMARK  126  A    between atoms: _305  and  _306
REMARK  127  A    between atoms: _309  and  _311
REMARK  128  A    between atoms: _311  and  _312
REMARK  129  A    between atoms: _311  and  _314
REMARK  130  A    between atoms: _314  and  _315
REMARK  131  A    between atoms: _318  and  _320
REMARK  132  A    between atoms: _320  and  _321
REMARK  133  A    between atoms: _323  and  _325
REMARK  134  A    between atoms: _325  and  _326
REMARK  135  A    between atoms: _329  and  _331
REMARK  136  A    between atoms: _331  and  _332
REMARK  137  A    between atoms: _331  and  _334
REMARK  138  A    between atoms: _334  and  _335
REMARK  139  A    between atoms: _338  and  _340
REMARK  140  A    between atoms: _340  and  _341
REMARK  141  A    between atoms: _340  and  _343
REMARK  142  A    between atoms: _343  and  _344
REMARK  143  A    between atoms: _347  and  _349
REMARK  144  A    between atoms: _349  and  _350
REMARK  145  A    between atoms: _349  and  _352
REMARK  146  A    between atoms: _352  and  _353
REMARK  147  A    between atoms: _356  and  _358
REMARK  148  A    between atoms: _358  and  _359
REMARK  149  A    between atoms: _358  and  _361
REMARK  150  A    between atoms: _364  and  _366
REMARK  151  A    between atoms: _366  and  _367
REMARK  152  A    between atoms: _366  and  _369
REMARK  153  A    between atoms: _369  and  _370
REMARK  154  A    between atoms: _370  and  _371
REMARK  155  A    between atoms: _371  and  _372
REMARK  156  A    between atoms: _372  and  _373
REMARK  157  A    between atoms: _377  and  _379
REMARK  158  A    between atoms: _379  and  _380
REMARK  159  A    between atoms: _379  and  _382
REMARK  160  A    between atoms: _382  and  _383
REMARK  161  A    between atoms: _383  and  _384
REMARK  162  A    between atoms: _386  and  _388
REMARK  163  A    between atoms: _388  and  _389
REMARK  164  A    between atoms: _388  and  _391
REMARK  165  A    between atoms: _391  and  _392
REMARK  166  A    between atoms: _395  and  _397
REMARK  167  A    between atoms: _397  and  _398
REMARK  168  A    between atoms: _400  and  _402
REMARK  169  A    between atoms: _402  and  _403
REMARK  170  A    between atoms: _405  and  _407
REMARK  171  A    between atoms: _407  and  _408
REMARK  172  A    between atoms: _407  and  _410
REMARK  173  A    between atoms: _410  and  _411
REMARK  174  A    between atoms: _414  and  _416
REMARK  175  A    between atoms: _416  and  _417
REMARK  176  A    between atoms: _419  and  _421
REMARK  177  A    between atoms: _421  and  _422
REMARK  178  A    between atoms: _424  and  _426
REMARK  179  A    between atoms: _426  and  _427
REMARK  180  A    between atoms: _426  and  _429
REMARK  181  A    between atoms: _429  and  _430
REMARK  182  A    between atoms: _433  and  _435
REMARK  183  A    between atoms: _435  and  _436
REMARK  184  A    between atoms: _435  and  _438
REMARK  185  A    between atoms: _441  and  _443
REMARK  186  A    between atoms: _443  and  _444
REMARK  187  A    between atoms: _443  and  _446
REMARK  188  A    between atoms: _446  and  _447
REMARK  189  A    between atoms: _451  and  _452
REMARK  190  A    between atoms: _457  and  _459
REMARK  191  A    between atoms: _459  and  _460
REMARK  192  A    between atoms: _459  and  _462
REMARK  193  A    between atoms: _462  and  _463
REMARK  194  A    between atoms: _467  and  _468
REMARK  195  A    between atoms: _473  and  _475
REMARK  196  A    between atoms: _475  and  _476
REMARK  197  A    between atoms: _479  and  _481
REMARK  198  A    between atoms: _481  and  _482
REMARK  199  A    between atoms: _481  and  _484
REMARK  200  A    between atoms: _484  and  _485
REMARK  201  A    between atoms: _490  and  _492
REMARK  202  A    between atoms: _492  and  _493
REMARK  203  A    between atoms: _492  and  _495
REMARK  204  A    between atoms: _495  and  _496
REMARK  205  A    between atoms: _499  and  _501
REMARK  206  A    between atoms: _501  and  _502
REMARK  207  A    between atoms: _501  and  _504
REMARK  208  A    between atoms: _504  and  _505
REMARK  209  A    between atoms: _508  and  _510
REMARK  210  A    between atoms: _510  and  _511
REMARK  211  A    between atoms: _513  and  _515
REMARK  212  A    between atoms: _515  and  _516
REMARK  213  A    between atoms: _515  and  _518
REMARK  214  A    between atoms: _518  and  _519
REMARK  215  A    between atoms: _519  and  _520
REMARK  216  A    between atoms: _520  and  _521
REMARK  217  A    between atoms: _530  and  _532
REMARK  218  A    between atoms: _532  and  _533
REMARK  219  A    between atoms: _532  and  _535
REMARK  220  A    between atoms: _535  and  _536
REMARK                            x       y       z     vdW  Elec       q    Type
REMARK                         _______ _______ _______ _____ _____    ______ ____
ROOT
ATOM      1  C   GLY A   5       7.841 -23.581 -17.424  0.00  0.00    +0.243 C 
ATOM      2  O   GLY A   5       6.853 -24.292 -17.542  0.00  0.00    -0.273 OA
ATOM      3  N   ILE A   6       9.046 -24.008 -17.821  0.00  0.00    -0.297 N 
ATOM      4  H   ILE A   6       9.835 -23.333 -17.866  0.00  0.00    +0.150 HD
ENDROOT
BRANCH   3   5
ATOM      5  CA  ILE A   6       9.275 -25.395 -18.190  0.00  0.00    +0.149 C 
BRANCH   5   6
ATOM      6  C   ILE A   6       9.000 -26.228 -16.948  0.00  0.00    +0.241 C 
ATOM      7  O   ILE A   6       9.418 -25.875 -15.851  0.00  0.00    -0.273 OA
ATOM      8  N   GLY A   7       8.276 -27.334 -17.061  0.00  0.00    -0.295 N 
ATOM      9  H   GLY A   7       8.095 -27.723 -18.008  0.00  0.00    +0.150 HD
BRANCH   8  10
ATOM     10  CA  GLY A   7       7.732 -28.014 -15.912  0.00  0.00    +0.176 C 
BRANCH  10  11
ATOM     11  C   GLY A   7       6.431 -27.530 -15.322  0.00  0.00    +0.243 C 
ATOM     12  O   GLY A   7       5.866 -28.214 -14.458  0.00  0.00    -0.273 OA
ATOM     13  N   GLY A   8       5.807 -26.419 -15.678  0.00  0.00    -0.295 N 
ATOM     14  H   GLY A   8       6.241 -25.772 -16.366  0.00  0.00    +0.150 HD
BRANCH  13  15
ATOM     15  CA  GLY A   8       4.515 -26.111 -15.102  0.00  0.00    +0.176 C 
BRANCH  15  16
ATOM     16  C   GLY A   8       4.535 -24.826 -14.304  0.00  0.00    +0.243 C 
ATOM     17  N   PHE A   9       3.719 -24.726 -13.266  0.00  0.00    -0.297 N 
ATOM     18  H   PHE A   9       3.163 -25.563 -12.996  0.00  0.00    +0.150 HD
ATOM     19  O   GLY A   8       5.302 -23.927 -14.613  0.00  0.00    -0.273 OA
BRANCH  17  20
ATOM     20  CA  PHE A   9       3.558 -23.527 -12.491  0.00  0.00    +0.153 C 
BRANCH  20  21
ATOM     21  C   PHE A   9       3.985 -23.721 -11.054  0.00  0.00    +0.241 C 
ATOM     22  N   ILE A  10       4.385 -22.637 -10.426  0.00  0.00    -0.298 N 
ATOM     23  H   ILE A  10       4.576 -21.784 -10.990  0.00  0.00    +0.150 HD
ATOM     24  O   PHE A   9       3.920 -24.826 -10.537  0.00  0.00    -0.273 OA
BRANCH  22  25
ATOM     25  CA  ILE A  10       4.575 -22.565  -8.986  0.00  0.00    +0.137 C 
BRANCH  25  26
ATOM     26  C   ILE A  10       3.781 -21.389  -8.453  0.00  0.00    +0.227 C 
ATOM     27  O   ILE A  10       3.494 -20.379  -9.105  0.00  0.00    -0.286 OA
ENDBRANCH  25  26
BRANCH  25  28
ATOM     28  CB  ILE A  10       6.054 -22.397  -8.574  0.00  0.00    +0.026 C 
ATOM     29  CG2 ILE A  10       6.844 -23.640  -8.972  0.00  0.00    +0.002 C 
BRANCH  28  30
ATOM     30  CG1 ILE A  10       6.719 -21.124  -9.067  0.00  0.00    +0.002 C 
ATOM     31  CD1 ILE A  10       8.122 -20.903  -8.523  0.00  0.00    +0.000 C 
ENDBRANCH  28  30
ENDBRANCH  25  28
ENDBRANCH  22  25
ENDBRANCH  20  21
BRANCH  20  32
ATOM     32  CB  PHE A   9       2.081 -23.081 -12.511  0.00  0.00    +0.055 C 
BRANCH  32  33
ATOM     33  CG  PHE A   9       1.566 -22.539 -13.823  0.00  0.00    -0.020 A 
ATOM     34  CD2 PHE A   9       1.403 -21.198 -14.024  0.00  0.00    -0.004 A 
ATOM     35  CE2 PHE A   9       0.968 -20.658 -15.210  0.00  0.00    -0.000 A 
ATOM     36  CZ  PHE A   9       0.650 -21.526 -16.223  0.00  0.00    -0.000 A 
ATOM     37  CE1 PHE A   9       0.760 -22.891 -16.054  0.00  0.00    -0.000 A 
ATOM     38  CD1 PHE A   9       1.232 -23.391 -14.855  0.00  0.00    -0.004 A 
ENDBRANCH  32  33
ENDBRANCH  20  32
ENDBRANCH  17  20
ENDBRANCH  15  16
ENDBRANCH  13  15
ENDBRANCH  10  11
ENDBRANCH   8  10
ENDBRANCH   5   6
BRANCH   5  39
ATOM     39  CB  ILE A   6      10.681 -25.601 -18.752  0.00  0.00    +0.027 C 
ATOM     40  CG2 ILE A   6      11.273 -26.967 -18.438  0.00  0.00    +0.002 C 
BRANCH  39  41
ATOM     41  CG1 ILE A   6      10.725 -25.324 -20.274  0.00  0.00    +0.002 C 
ATOM     42  CD1 ILE A   6      12.149 -25.160 -20.759  0.00  0.00    +0.000 C 
ENDBRANCH  39  41
ENDBRANCH   5  39
ENDBRANCH   3   5
BRANCH   1  43
ATOM     43  CA  GLY A   5       7.749 -22.205 -16.812  0.00  0.00    +0.176 C 
BRANCH  43  46
ATOM     44  C   GLY A   4       6.152 -20.677 -15.662  0.00  0.00    +0.243 C 
ATOM     45  O   GLY A   4       6.727 -19.606 -15.405  0.00  0.00    -0.273 OA
ATOM     46  N   GLY A   5       6.487 -21.804 -16.258  0.00  0.00    -0.295 N 
ATOM     47  H   GLY A   5       5.724 -22.506 -16.339  0.00  0.00    +0.150 HD
BRANCH  44  48
ATOM     48  CA  GLY A   4       4.703 -20.772 -15.184  0.00  0.00    +0.176 C 
BRANCH  48  51
ATOM     49  C   ILE A   3       4.274 -19.573 -13.152  0.00  0.00    +0.241 C 
ATOM     50  O   ILE A   3       4.538 -20.536 -12.466  0.00  0.00    -0.273 OA
ATOM     51  N   GLY A   4       4.364 -19.569 -14.489  0.00  0.00    -0.295 N 
ATOM     52  H   GLY A   4       4.188 -18.693 -15.020  0.00  0.00    +0.150 HD
BRANCH  49  53
ATOM     53  CA  ILE A   3       3.827 -18.259 -12.526  0.00  0.00    +0.149 C 
BRANCH  53  55
ATOM     54  C   MET A   2       1.756 -18.073 -11.311  0.00  0.00    +0.241 C 
ATOM     55  N   ILE A   3       2.964 -18.567 -11.401  0.00  0.00    -0.297 N 
ATOM     56  H   ILE A   3       3.314 -19.195 -10.649  0.00  0.00    +0.150 HD
ATOM     57  O   MET A   2       1.270 -17.291 -12.156  0.00  0.00    -0.273 OA
BRANCH  54  58
ATOM     58  CA  MET A   2       0.887 -18.492 -10.137  0.00  0.00    +0.149 C 
BRANCH  58  61
ATOM     59  C   LYS A   1       0.717 -16.840  -8.353  0.00  0.00    +0.238 C 
ATOM     60  O   LYS A   1       1.424 -17.512  -7.590  0.00  0.00    -0.274 OA
ATOM     61  N   MET A   2       0.329 -17.289  -9.540  0.00  0.00    -0.297 N 
ATOM     62  H   MET A   2      -0.400 -16.762 -10.062  0.00  0.00    +0.150 HD
BRANCH  59  63
ATOM     63  CA  LYS A   1       0.226 -15.448  -7.981  0.00  0.00    +0.145 C 
BRANCH  63  64
ATOM     64  N   LYS A   1       0.116 -15.384  -6.541  0.00  0.00    -0.238 NA
ATOM     65  H   LYS A   1       0.760 -15.966  -5.969  0.00  0.00    +0.142 HD
ENDBRANCH  63  64
BRANCH  63  66
ATOM     66  CB  LYS A   1       1.203 -14.353  -8.472  0.00  0.00    +0.026 C 
BRANCH  66  67
ATOM     67  CG  LYS A   1       1.224 -14.109  -9.977  0.00  0.00    -0.000 C 
BRANCH  67  68
ATOM     68  CD  LYS A   1       2.209 -13.045 -10.383  0.00  0.00    -0.024 C 
BRANCH  68  69
ATOM     69  CE  LYS A   1       2.197 -12.823 -11.907  0.00  0.00    -0.086 C 
BRANCH  69  70
ATOM     70  NZ  LYS A   1       2.512 -11.414 -12.175  0.00  0.00    +0.380 N 
ATOM     71  HZ1 LYS A   1       1.798 -10.808 -11.722  0.00  0.00    -0.089 HD
ATOM     72  HZ2 LYS A   1       3.452 -11.191 -11.791  0.00  0.00    -0.089 HD
ATOM     73  HZ3 LYS A   1       2.508 -11.248 -13.202  0.00  0.00    -0.089 HD
ENDBRANCH  69  70
ENDBRANCH  68  69
ENDBRANCH  67  68
ENDBRANCH  66  67
ENDBRANCH  63  66
ENDBRANCH  59  63
ENDBRANCH  58  61
BRANCH  58  74
ATOM     74  CB  MET A   2      -0.204 -19.447 -10.631  0.00  0.00    +0.041 C 
BRANCH  74  75
ATOM     75  CG  MET A   2      -0.961 -20.108  -9.489  0.00  0.00    +0.060 C 
BRANCH  75  76
ATOM     76  SD  MET A   2      -0.173 -21.642  -9.031  0.00  0.00    -0.139 S 
ATOM     77  CE  MET A   2      -0.703 -22.737 -10.360  0.00  0.00    +0.069 C 
ENDBRANCH  75  76
ENDBRANCH  74  75
ENDBRANCH  58  74
ENDBRANCH  54  58
ENDBRANCH  53  55
BRANCH  53  78
ATOM     78  CB  ILE A   3       5.048 -17.400 -12.152  0.00  0.00    +0.027 C 
ATOM     79  CG2 ILE A   3       4.542 -16.060 -11.706  0.00  0.00    +0.002 C 
BRANCH  78  80
ATOM     80  CG1 ILE A   3       5.981 -18.089 -11.143  0.00  0.00    +0.002 C 
ATOM     81  CD1 ILE A   3       7.287 -17.337 -11.009  0.00  0.00    +0.000 C 
ENDBRANCH  78  80
ENDBRANCH  53  78
ENDBRANCH  49  53
ENDBRANCH  48  51
ENDBRANCH  44  48
ENDBRANCH  43  46
ENDBRANCH   1  43
TORSDOF 36
REMARK  Name = ../refined-set-2016/4hdf/4hdf_pocket.pdb
REMARK  220 active torsions:
REMARK  status: ('A' for Active; 'I' for Inactive)
REMARK    1  A    between atoms: _1  and  _3
REMARK    2  A    between atoms: _3  and  _4
REMARK    3  A    between atoms: _3  and  _6
REMARK    4  A    between atoms: _6  and  _7
REMARK    5  A    between atoms: _7  and  _8
REMARK    6  A    between atoms: _8  and  _9
REMARK    7  A    between atoms: _18  and  _20
REMARK    8  A    between atoms: _20  and  _21
REMARK    9  A    between atoms: _20  and  _23
REMARK   10  A    between atoms: _23  and  _24
REMARK   11  A    between atoms: _27  and  _29
REMARK   12  A    between atoms: _29  and  _30
REMARK   13  A    between atoms: _29  and  _32
REMARK   14  A    between atoms: _32  and  _33
REMARK   15  A    between atoms: _36  and  _38
REMARK   16  A    between atoms: _38  and  _39
REMARK   17  A    between atoms: _38  and  _41
REMARK   18  A    between atoms: _41  and  _42
REMARK   19  A    between atoms: _45  and  _47
REMARK   20  A    between atoms: _47  and  _48
REMARK   21  A    between atoms: _47  and  _50
REMARK   22  A    between atoms: _50  and  _51
REMARK   23  A    between atoms: _54  and  _56
REMARK   24  A    between atoms: _56  and  _57
REMARK   25  A    between atoms: _59  and  _61
REMARK   26  A    between atoms: _61  and  _62
REMARK   27  A    between atoms: _65  and  _67
REMARK   28  A    between atoms: _67  and  _68
REMARK   29  A    between atoms: _67  and  _70
REMARK   30  A    between atoms: _70  and  _71
REMARK   31  A    between atoms: _74  and  _76
REMARK   32  A    between atoms: _76  and  _77
REMARK   33  A    between atoms: _76  and  _79
REMARK   34  A    between atoms: _79  and  _80
REMARK   35  A    between atoms: _83  and  _85
REMARK   36  A    between atoms: _85  and  _86
REMARK   37  A    between atoms: _85  and  _88
REMARK   38  A    between atoms: _88  and  _89
REMARK   39  A    between atoms: _92  and  _94
REMARK   40  A    between atoms: _94  and  _95
REMARK   41  A    between atoms: _94  and  _97
REMARK   42  A    between atoms: _100  and  _102
REMARK   43  A    between atoms: _102  and  _103
REMARK   44  A    between atoms: _102  and  _105
REMARK   45  A    between atoms: _105  and  _106
REMARK   46  A    between atoms: _106  and  _107
REMARK   47  A    between atoms: _107  and  _108
REMARK   48  A    between atoms: _108  and  _109
REMARK   49  A    between atoms: _113  and  _115
REMARK   50  A    between atoms: _115  and  _116
REMARK   51  A    between atoms: _115  and  _118
REMARK   52  A    between atoms: _118  and  _119
REMARK   53  A    between atoms: _119  and  _120
REMARK   54  A    between atoms: _122  and  _124
REMARK   55  A    between atoms: _124  and  _125
REMARK   56  A    between atoms: _124  and  _127
REMARK   57  A    between atoms: _127  and  _128
REMARK   58  A    between atoms: _131  and  _133
REMARK   59  A    between atoms: _133  and  _134
REMARK   60  A    between atoms: _136  and  _138
REMARK   61  A    between atoms: _138  and  _139
REMARK   62  A    between atoms: _141  and  _143
REMARK   63  A    between atoms: _143  and  _144
REMARK   64  A    between atoms: _143  and  _146
REMARK   65  A    between atoms: _146  and  _147
REMARK   66  A    between atoms: _150  and  _152
REMARK   67  A    between atoms: _152  and  _153
REMARK   68  A    between atoms: _155  and  _157
REMARK   69  A    between atoms: _157  and  _158
REMARK   70  A    between atoms: _160  and  _162
REMARK   71  A    between atoms: _162  and  _163
REMARK   72  A    between atoms: _162  and  _165
REMARK   73  A    between atoms: _165  and  _166
REMARK   74  A    between atoms: _172  and  _174
REMARK   75  A    between atoms: _174  and  _175
REMARK   76  A    between atoms: _174  and  _177
REMARK   77  A    between atoms: _177  and  _178
REMARK   78  A    between atoms: _181  and  _183
REMARK   79  A    between atoms: _183  and  _184
REMARK   80  A    between atoms: _183  and  _186
REMARK   81  A    between atoms: _186  and  _187
REMARK   82  A    between atoms: _190  and  _192
REMARK   83  A    between atoms: _192  and  _193
REMARK   84  A    between atoms: _192  and  _195
REMARK   85  A    between atoms: _195  and  _196
REMARK   86  A    between atoms: _200  and  _201
REMARK   87  A    between atoms: _206  and  _208
REMARK   88  A    between atoms: _208  and  _209
REMARK   89  A    between atoms: _212  and  _214
REMARK   90  A    between atoms: _214  and  _215
REMARK   91  A    between atoms: _214  and  _217
REMARK   92  A    between atoms: _217  and  _218
REMARK   93  A    between atoms: _223  and  _225
REMARK   94  A    between atoms: _225  and  _226
REMARK   95  A    between atoms: _225  and  _228
REMARK   96  A    between atoms: _228  and  _229
REMARK   97  A    between atoms: _232  and  _234
REMARK   98  A    between atoms: _234  and  _235
REMARK   99  A    between atoms: _237  and  _239
REMARK  100  A    between atoms: _239  and  _240
REMARK  101  A    between atoms: _239  and  _242
REMARK  102  A    between atoms: _242  and  _243
REMARK  103  A    between atoms: _243  and  _244
REMARK  104  A    between atoms: _244  and  _245
REMARK  105  A    between atoms: _254  and  _256
REMARK  106  A    between atoms: _256  and  _257
REMARK  107  A    between atoms: _256  and  _259
REMARK  108  A    between atoms: _259  and  _260
REMARK  109  A    between atoms: _265  and  _267
REMARK  110  A    between atoms: _267  and  _268
REMARK  111  A    between atoms: _267  and  _270
REMARK  112  A    between atoms: _270  and  _271
REMARK  113  A    between atoms: _271  and  _272
REMARK  114  A    between atoms: _272  and  _273
REMARK  115  A    between atoms: _282  and  _284
REMARK  116  A    between atoms: _284  and  _285
REMARK  117  A    between atoms: _284  and  _287
REMARK  118  A    between atoms: _287  and  _288
REMARK  119  A    between atoms: _291  and  _293
REMARK  120  A    between atoms: _293  and  _294
REMARK  121  A    between atoms: _293  and  _296
REMARK  122  A    between atoms: _296  and  _297
REMARK  123  A    between atoms: _300  and  _302
REMARK  124  A    between atoms: _302  and  _303
REMARK  125  A    between atoms: _302  and  _305
REMARK  126  A    between atoms: _305  and  _306
REMARK  127  A    between atoms: _309  and  _311
REMARK  128  A    between atoms: _311  and  _312
REMARK  129  A    between atoms: _311  and  _314
REMARK  130  A    between atoms: _314  and  _315
REMARK  131  A    between atoms: _318  and  _320
REMARK  132  A    between atoms: _320  and  _321
REMARK  133  A    between atoms: _323  and  _325
REMARK  134  A    between atoms: _325  and  _326
REMARK  135  A    between atoms: _329  and  _331
REMARK  136  A    between atoms: _331  and  _332
REMARK  137  A    between atoms: _331  and  _334
REMARK  138  A    between atoms: _334  and  _335
REMARK  139  A    between atoms: _338  and  _340
REMARK  140  A    between atoms: _340  and  _341
REMARK  141  A    between atoms: _340  and  _343
REMARK  142  A    between atoms: _343  and  _344
REMARK  143  A    between atoms: _347  and  _349
REMARK  144  A    between atoms: _349  and  _350
REMARK  145  A    between atoms: _349  and  _352
REMARK  146  A    between atoms: _352  and  _353
REMARK  147  A    between atoms: _356  and  _358
REMARK  148  A    between atoms: _358  and  _359
REMARK  149  A    between atoms: _358  and  _361
REMARK  150  A    between atoms: _364  and  _366
REMARK  151  A    between atoms: _366  and  _367
REMARK  152  A    between atoms: _366  and  _369
REMARK  153  A    between atoms: _369  and  _370
REMARK  154  A    between atoms: _370  and  _371
REMARK  155  A    between atoms: _371  and  _372
REMARK  156  A    between atoms: _372  and  _373
REMARK  157  A    between atoms: _377  and  _379
REMARK  158  A    between atoms: _379  and  _380
REMARK  159  A    between atoms: _379  and  _382
REMARK  160  A    between atoms: _382  and  _383
REMARK  161  A    between atoms: _383  and  _384
REMARK  162  A    between atoms: _386  and  _388
REMARK  163  A    between atoms: _388  and  _389
REMARK  164  A    between atoms: _388  and  _391
REMARK  165  A    between atoms: _391  and  _392
REMARK  166  A    between atoms: _395  and  _397
REMARK  167  A    between atoms: _397  and  _398
REMARK  168  A    between atoms: _400  and  _402
REMARK  169  A    between atoms: _402  and  _403
REMARK  170  A    between atoms: _405  and  _407
REMARK  171  A    between atoms: _407  and  _408
REMARK  172  A    between atoms: _407  and  _410
REMARK  173  A    between atoms: _410  and  _411
REMARK  174  A    between atoms: _414  and  _416
REMARK  175  A    between atoms: _416  and  _417
REMARK  176  A    between atoms: _419  and  _421
REMARK  177  A    between atoms: _421  and  _422
REMARK  178  A    between atoms: _424  and  _426
REMARK  179  A    between atoms: _426  and  _427
REMARK  180  A    between atoms: _426  and  _429
REMARK  181  A    between atoms: _429  and  _430
REMARK  182  A    between atoms: _433  and  _435
REMARK  183  A    between atoms: _435  and  _436
REMARK  184  A    between atoms: _435  and  _438
REMARK  185  A    between atoms: _441  and  _443
REMARK  186  A    between atoms: _443  and  _444
REMARK  187  A    between atoms: _443  and  _446
REMARK  188  A    between atoms: _446  and  _447
REMARK  189  A    between atoms: _451  and  _452
REMARK  190  A    between atoms: _457  and  _459
REMARK  191  A    between atoms: _459  and  _460
REMARK  192  A    between atoms: _459  and  _462
REMARK  193  A    between atoms: _462  and  _463
REMARK  194  A    between atoms: _467  and  _468
REMARK  195  A    between atoms: _473  and  _475
REMARK  196  A    between atoms: _475  and  _476
REMARK  197  A    between atoms: _479  and  _481
REMARK  198  A    between atoms: _481  and  _482
REMARK  199  A    between atoms: _481  and  _484
REMARK  200  A    between atoms: _484  and  _485
REMARK  201  A    between atoms: _490  and  _492
REMARK  202  A    between atoms: _492  and  _493
REMARK  203  A    between atoms: _492  and  _495
REMARK  204  A    between atoms: _495  and  _496
REMARK  205  A    between atoms: _499  and  _501
REMARK  206  A    between atoms: _501  and  _502
REMARK  207  A    between atoms: _501  and  _504
REMARK  208  A    between atoms: _504  and  _505
REMARK  209  A    between atoms: _508  and  _510
REMARK  210  A    between atoms: _510  and  _511
REMARK  211  A    between atoms: _513  and  _515
REMARK  212  A    between atoms: _515  and  _516
REMARK  213  A    between atoms: _515  and  _518
REMARK  214  A    between atoms: _518  and  _519
REMARK  215  A    between atoms: _519  and  _520
REMARK  216  A    between atoms: _520  and  _521
REMARK  217  A    between atoms: _530  and  _532
REMARK  218  A    between atoms: _532  and  _533
REMARK  219  A    between atoms: _532  and  _535
REMARK  220  A    between atoms: _535  and  _536
REMARK                            x       y       z     vdW  Elec       q    Type
REMARK                         _______ _______ _______ _____ _____    ______ ____
ROOT
ATOM      1  CA  LEU A   1       7.894 -12.720  -6.716  0.00  0.00    +0.133 C 
ENDROOT
BRANCH   1   2
ATOM      2  N   LEU A   1       8.631 -11.505  -7.074  0.00  0.00    -0.239 NA
ATOM      3  H   LEU A   1       9.281 -11.543  -7.885  0.00  0.00    +0.142 HD
ENDBRANCH   1   2
BRANCH   1   4
ATOM      4  C   LEU A   1       8.757 -13.624  -5.865  0.00  0.00    +0.224 C 
ATOM      5  O   LEU A   1       9.893 -13.876  -6.216  0.00  0.00    -0.287 OA
ENDBRANCH   1   4
BRANCH   1   6
ATOM      6  CB  LEU A   1       7.439 -13.444  -7.987  0.00  0.00    +0.025 C 
BRANCH   6   7
ATOM      7  CG  LEU A   1       6.744 -12.567  -9.041  0.00  0.00    +0.002 C 
ATOM      8  CD2 LEU A   1       5.521 -11.871  -8.485  0.00  0.00    +0.000 C 
ATOM      9  CD1 LEU A   1       6.385 -13.423 -10.249  0.00  0.00    +0.000 C 
ENDBRANCH   6   7
ENDBRANCH   1   6
TORSDOF 4
REMARK  Name = ../refined-set-2016/4hdf/4hdf_pocket.pdb
REMARK  220 active torsions:
REMARK  status: ('A' for Active; 'I' for Inactive)
REMARK    1  A    between atoms: _1  and  _3
REMARK    2  A    between atoms: _3  and  _4
REMARK    3  A    between atoms: _3  and  _6
REMARK    4  A    between atoms: _6  and  _7
REMARK    5  A    between atoms: _7  and  _8
REMARK    6  A    between atoms: _8  and  _9
REMARK    7  A    between atoms: _18  and  _20
REMARK    8  A    between atoms: _20  and  _21
REMARK    9  A    between atoms: _20  and  _23
REMARK   10  A    between atoms: _23  and  _24
REMARK   11  A    between atoms: _27  and  _29
REMARK   12  A    between atoms: _29  and  _30
REMARK   13  A    between atoms: _29  and  _32
REMARK   14  A    between atoms: _32  and  _33
REMARK   15  A    between atoms: _36  and  _38
REMARK   16  A    between atoms: _38  and  _39
REMARK   17  A    between atoms: _38  and  _41
REMARK   18  A    between atoms: _41  and  _42
REMARK   19  A    between atoms: _45  and  _47
REMARK   20  A    between atoms: _47  and  _48
REMARK   21  A    between atoms: _47  and  _50
REMARK   22  A    between atoms: _50  and  _51
REMARK   23  A    between atoms: _54  and  _56
REMARK   24  A    between atoms: _56  and  _57
REMARK   25  A    between atoms: _59  and  _61
REMARK   26  A    between atoms: _61  and  _62
REMARK   27  A    between atoms: _65  and  _67
REMARK   28  A    between atoms: _67  and  _68
REMARK   29  A    between atoms: _67  and  _70
REMARK   30  A    between atoms: _70  and  _71
REMARK   31  A    between atoms: _74  and  _76
REMARK   32  A    between atoms: _76  and  _77
REMARK   33  A    between atoms: _76  and  _79
REMARK   34  A    between atoms: _79  and  _80
REMARK   35  A    between atoms: _83  and  _85
REMARK   36  A    between atoms: _85  and  _86
REMARK   37  A    between atoms: _85  and  _88
REMARK   38  A    between atoms: _88  and  _89
REMARK   39  A    between atoms: _92  and  _94
REMARK   40  A    between atoms: _94  and  _95
REMARK   41  A    between atoms: _94  and  _97
REMARK   42  A    between atoms: _100  and  _102
REMARK   43  A    between atoms: _102  and  _103
REMARK   44  A    between atoms: _102  and  _105
REMARK   45  A    between atoms: _105  and  _106
REMARK   46  A    between atoms: _106  and  _107
REMARK   47  A    between atoms: _107  and  _108
REMARK   48  A    between atoms: _108  and  _109
REMARK   49  A    between atoms: _113  and  _115
REMARK   50  A    between atoms: _115  and  _116
REMARK   51  A    between atoms: _115  and  _118
REMARK   52  A    between atoms: _118  and  _119
REMARK   53  A    between atoms: _119  and  _120
REMARK   54  A    between atoms: _122  and  _124
REMARK   55  A    between atoms: _124  and  _125
REMARK   56  A    between atoms: _124  and  _127
REMARK   57  A    between atoms: _127  and  _128
REMARK   58  A    between atoms: _131  and  _133
REMARK   59  A    between atoms: _133  and  _134
REMARK   60  A    between atoms: _136  and  _138
REMARK   61  A    between atoms: _138  and  _139
REMARK   62  A    between atoms: _141  and  _143
REMARK   63  A    between atoms: _143  and  _144
REMARK   64  A    between atoms: _143  and  _146
REMARK   65  A    between atoms: _146  and  _147
REMARK   66  A    between atoms: _150  and  _152
REMARK   67  A    between atoms: _152  and  _153
REMARK   68  A    between atoms: _155  and  _157
REMARK   69  A    between atoms: _157  and  _158
REMARK   70  A    between atoms: _160  and  _162
REMARK   71  A    between atoms: _162  and  _163
REMARK   72  A    between atoms: _162  and  _165
REMARK   73  A    between atoms: _165  and  _166
REMARK   74  A    between atoms: _172  and  _174
REMARK   75  A    between atoms: _174  and  _175
REMARK   76  A    between atoms: _174  and  _177
REMARK   77  A    between atoms: _177  and  _178
REMARK   78  A    between atoms: _181  and  _183
REMARK   79  A    between atoms: _183  and  _184
REMARK   80  A    between atoms: _183  and  _186
REMARK   81  A    between atoms: _186  and  _187
REMARK   82  A    between atoms: _190  and  _192
REMARK   83  A    between atoms: _192  and  _193
REMARK   84  A    between atoms: _192  and  _195
REMARK   85  A    between atoms: _195  and  _196
REMARK   86  A    between atoms: _200  and  _201
REMARK   87  A    between atoms: _206  and  _208
REMARK   88  A    between atoms: _208  and  _209
REMARK   89  A    between atoms: _212  and  _214
REMARK   90  A    between atoms: _214  and  _215
REMARK   91  A    between atoms: _214  and  _217
REMARK   92  A    between atoms: _217  and  _218
REMARK   93  A    between atoms: _223  and  _225
REMARK   94  A    between atoms: _225  and  _226
REMARK   95  A    between atoms: _225  and  _228
REMARK   96  A    between atoms: _228  and  _229
REMARK   97  A    between atoms: _232  and  _234
REMARK   98  A    between atoms: _234  and  _235
REMARK   99  A    between atoms: _237  and  _239
REMARK  100  A    between atoms: _239  and  _240
REMARK  101  A    between atoms: _239  and  _242
REMARK  102  A    between atoms: _242  and  _243
REMARK  103  A    between atoms: _243  and  _244
REMARK  104  A    between atoms: _244  and  _245
REMARK  105  A    between atoms: _254  and  _256
REMARK  106  A    between atoms: _256  and  _257
REMARK  107  A    between atoms: _256  and  _259
REMARK  108  A    between atoms: _259  and  _260
REMARK  109  A    between atoms: _265  and  _267
REMARK  110  A    between atoms: _267  and  _268
REMARK  111  A    between atoms: _267  and  _270
REMARK  112  A    between atoms: _270  and  _271
REMARK  113  A    between atoms: _271  and  _272
REMARK  114  A    between atoms: _272  and  _273
REMARK  115  A    between atoms: _282  and  _284
REMARK  116  A    between atoms: _284  and  _285
REMARK  117  A    between atoms: _284  and  _287
REMARK  118  A    between atoms: _287  and  _288
REMARK  119  A    between atoms: _291  and  _293
REMARK  120  A    between atoms: _293  and  _294
REMARK  121  A    between atoms: _293  and  _296
REMARK  122  A    between atoms: _296  and  _297
REMARK  123  A    between atoms: _300  and  _302
REMARK  124  A    between atoms: _302  and  _303
REMARK  125  A    between atoms: _302  and  _305
REMARK  126  A    between atoms: _305  and  _306
REMARK  127  A    between atoms: _309  and  _311
REMARK  128  A    between atoms: _311  and  _312
REMARK  129  A    between atoms: _311  and  _314
REMARK  130  A    between atoms: _314  and  _315
REMARK  131  A    between atoms: _318  and  _320
REMARK  132  A    between atoms: _320  and  _321
REMARK  133  A    between atoms: _323  and  _325
REMARK  134  A    between atoms: _325  and  _326
REMARK  135  A    between atoms: _329  and  _331
REMARK  136  A    between atoms: _331  and  _332
REMARK  137  A    between atoms: _331  and  _334
REMARK  138  A    between atoms: _334  and  _335
REMARK  139  A    between atoms: _338  and  _340
REMARK  140  A    between atoms: _340  and  _341
REMARK  141  A    between atoms: _340  and  _343
REMARK  142  A    between atoms: _343  and  _344
REMARK  143  A    between atoms: _347  and  _349
REMARK  144  A    between atoms: _349  and  _350
REMARK  145  A    between atoms: _349  and  _352
REMARK  146  A    between atoms: _352  and  _353
REMARK  147  A    between atoms: _356  and  _358
REMARK  148  A    between atoms: _358  and  _359
REMARK  149  A    between atoms: _358  and  _361
REMARK  150  A    between atoms: _364  and  _366
REMARK  151  A    between atoms: _366  and  _367
REMARK  152  A    between atoms: _366  and  _369
REMARK  153  A    between atoms: _369  and  _370
REMARK  154  A    between atoms: _370  and  _371
REMARK  155  A    between atoms: _371  and  _372
REMARK  156  A    between atoms: _372  and  _373
REMARK  157  A    between atoms: _377  and  _379
REMARK  158  A    between atoms: _379  and  _380
REMARK  159  A    between atoms: _379  and  _382
REMARK  160  A    between atoms: _382  and  _383
REMARK  161  A    between atoms: _383  and  _384
REMARK  162  A    between atoms: _386  and  _388
REMARK  163  A    between atoms: _388  and  _389
REMARK  164  A    between atoms: _388  and  _391
REMARK  165  A    between atoms: _391  and  _392
REMARK  166  A    between atoms: _395  and  _397
REMARK  167  A    between atoms: _397  and  _398
REMARK  168  A    between atoms: _400  and  _402
REMARK  169  A    between atoms: _402  and  _403
REMARK  170  A    between atoms: _405  and  _407
REMARK  171  A    between atoms: _407  and  _408
REMARK  172  A    between atoms: _407  and  _410
REMARK  173  A    between atoms: _410  and  _411
REMARK  174  A    between atoms: _414  and  _416
REMARK  175  A    between atoms: _416  and  _417
REMARK  176  A    between atoms: _419  and  _421
REMARK  177  A    between atoms: _421  and  _422
REMARK  178  A    between atoms: _424  and  _426
REMARK  179  A    between atoms: _426  and  _427
REMARK  180  A    between atoms: _426  and  _429
REMARK  181  A    between atoms: _429  and  _430
REMARK  182  A    between atoms: _433  and  _435
REMARK  183  A    between atoms: _435  and  _436
REMARK  184  A    between atoms: _435  and  _438
REMARK  185  A    between atoms: _441  and  _443
REMARK  186  A    between atoms: _443  and  _444
REMARK  187  A    between atoms: _443  and  _446
REMARK  188  A    between atoms: _446  and  _447
REMARK  189  A    between atoms: _451  and  _452
REMARK  190  A    between atoms: _457  and  _459
REMARK  191  A    between atoms: _459  and  _460
REMARK  192  A    between atoms: _459  and  _462
REMARK  193  A    between atoms: _462  and  _463
REMARK  194  A    between atoms: _467  and  _468
REMARK  195  A    between atoms: _473  and  _475
REMARK  196  A    between atoms: _475  and  _476
REMARK  197  A    between atoms: _479  and  _481
REMARK  198  A    between atoms: _481  and  _482
REMARK  199  A    between atoms: _481  and  _484
REMARK  200  A    between atoms: _484  and  _485
REMARK  201  A    between atoms: _490  and  _492
REMARK  202  A    between atoms: _492  and  _493
REMARK  203  A    between atoms: _492  and  _495
REMARK  204  A    between atoms: _495  and  _496
REMARK  205  A    between atoms: _499  and  _501
REMARK  206  A    between atoms: _501  and  _502
REMARK  207  A    between atoms: _501  and  _504
REMARK  208  A    between atoms: _504  and  _505
REMARK  209  A    between atoms: _508  and  _510
REMARK  210  A    between atoms: _510  and  _511
REMARK  211  A    between atoms: _513  and  _515
REMARK  212  A    between atoms: _515  and  _516
REMARK  213  A    between atoms: _515  and  _518
REMARK  214  A    between atoms: _518  and  _519
REMARK  215  A    between atoms: _519  and  _520
REMARK  216  A    between atoms: _520  and  _521
REMARK  217  A    between atoms: _530  and  _532
REMARK  218  A    between atoms: _532  and  _533
REMARK  219  A    between atoms: _532  and  _535
REMARK  220  A    between atoms: _535  and  _536
REMARK                            x       y       z     vdW  Elec       q    Type
REMARK                         _______ _______ _______ _____ _____    ______ ____
ROOT
ATOM      1  C   ALA A   3      16.484 -18.963  -9.048  0.00  0.00    +0.241 C 
ATOM      2  N   ASN A   4      17.274 -18.090  -8.446  0.00  0.00    -0.297 N 
ATOM      3  H   ASN A   4      18.161 -18.427  -8.019  0.00  0.00    +0.150 HD
ATOM      4  O   ALA A   3      15.334 -18.643  -9.400  0.00  0.00    -0.273 OA
ENDROOT
BRANCH   1   5
ATOM      5  CA  ALA A   3      16.976 -20.366  -9.341  0.00  0.00    +0.149 C 
ATOM      6  CB  ALA A   3      17.402 -20.421 -10.827  0.00  0.00    +0.031 C 
BRANCH   5   9
ATOM      7  C   PRO A   2      16.192 -22.551  -8.634  0.00  0.00    +0.245 C 
ATOM      8  O   PRO A   2      17.338 -22.987  -8.443  0.00  0.00    -0.273 OA
ATOM      9  N   ALA A   3      15.947 -21.340  -9.063  0.00  0.00    -0.297 N 
ATOM     10  H   ALA A   3      14.956 -21.063  -9.212  0.00  0.00    +0.150 HD
BRANCH   7  14
ATOM     11  C   THR A   1      13.304 -21.996  -7.442  0.00  0.00    +0.244 C 
ATOM     12  O   THR A   1      14.036 -21.838  -6.451  0.00  0.00    -0.273 OA
ATOM     13  N   PRO A   2      13.711 -22.800  -8.419  0.00  0.00    -0.264 N 
ATOM     14  CA  PRO A   2      15.011 -23.461  -8.363  0.00  0.00    +0.175 C 
ATOM     15  CB  PRO A   2      14.995 -24.503  -9.487  0.00  0.00    -0.000 C 
ATOM     16  CG  PRO A   2      13.829 -24.208 -10.273  0.00  0.00    -0.007 C 
ATOM     17  CD  PRO A   2      12.942 -23.221  -9.596  0.00  0.00    +0.120 C 
BRANCH  11  18
ATOM     18  CA  THR A   1      11.989 -21.270  -7.566  0.00  0.00    +0.172 C 
BRANCH  18  19
ATOM     19  N   THR A   1      11.298 -21.242  -6.288  0.00  0.00    -0.236 NA
ATOM     20  H   THR A   1      11.365 -20.390  -5.696  0.00  0.00    +0.142 HD
ENDBRANCH  18  19
BRANCH  18  21
ATOM     21  CB  THR A   1      12.219 -19.832  -8.102  0.00  0.00    +0.135 C 
ATOM     22  CG2 THR A   1      12.983 -18.929  -7.174  0.00  0.00    +0.034 C 
BRANCH  21  23
ATOM     23  OG1 THR A   1      12.983 -19.985  -9.282  0.00  0.00    -0.383 OA
ATOM     24  HG1 THR A   1      13.164 -19.094  -9.674  0.00  0.00    +0.210 HD
ENDBRANCH  21  23
ENDBRANCH  18  21
ENDBRANCH  11  18
ENDBRANCH   7  14
ENDBRANCH   5   9
ENDBRANCH   1   5
BRANCH   2  25
ATOM     25  CA  ASN A   4      16.947 -16.679  -8.360  0.00  0.00    +0.158 C 
BRANCH  25  26
ATOM     26  C   ASN A   4      17.132 -16.072  -9.748  0.00  0.00    +0.241 C 
ATOM     27  N   ILE A   5      16.110 -15.403 -10.222  0.00  0.00    -0.298 N 
ATOM     28  H   ILE A   5      15.295 -15.265  -9.591  0.00  0.00    +0.150 HD
ATOM     29  O   ASN A   4      18.197 -16.202 -10.340  0.00  0.00    -0.273 OA
BRANCH  27  30
ATOM     30  CA  ILE A   5      16.024 -14.840 -11.556  0.00  0.00    +0.137 C 
BRANCH  30  31
ATOM     31  C   ILE A   5      15.697 -13.365 -11.539  0.00  0.00    +0.227 C 
ATOM     32  O   ILE A   5      14.699 -12.981 -10.919  0.00  0.00    -0.286 OA
ENDBRANCH  30  31
BRANCH  30  33
ATOM     33  CB  ILE A   5      14.877 -15.539 -12.322  0.00  0.00    +0.026 C 
ATOM     34  CG2 ILE A   5      14.439 -14.739 -13.538  0.00  0.00    +0.002 C 
BRANCH  33  35
ATOM     35  CG1 ILE A   5      15.226 -16.990 -12.647  0.00  0.00    +0.002 C 
ATOM     36  CD1 ILE A   5      14.000 -17.834 -12.468  0.00  0.00    +0.000 C 
ENDBRANCH  33  35
ENDBRANCH  30  33
ENDBRANCH  27  30
ENDBRANCH  25  26
BRANCH  25  37
ATOM     37  CB  ASN A   4      17.892 -16.037  -7.357  0.00  0.00    +0.114 C 
BRANCH  37  38
ATOM     38  CG  ASN A   4      17.739 -16.537  -5.941  0.00  0.00    +0.222 C 
ATOM     39  ND2 ASN A   4      18.838 -16.583  -5.218  0.00  0.00    -0.329 N 
ATOM     40 HD21 ASN A   4      18.798 -16.909  -4.231  0.00  0.00    +0.145 HD
ATOM     41 HD22 ASN A   4      19.746 -16.293  -5.633  0.00  0.00    +0.145 HD
ATOM     42  OD1 ASN A   4      16.628 -16.862  -5.525  0.00  0.00    -0.275 OA
ENDBRANCH  37  38
ENDBRANCH  25  37
ENDBRANCH   2  25
TORSDOF 15
REMARK  Name = ../refined-set-2016/4hdf/4hdf_pocket.pdb
REMARK  220 active torsions:
REMARK  status: ('A' for Active; 'I' for Inactive)
REMARK    1  A    between atoms: _1  and  _3
REMARK    2  A    between atoms: _3  and  _4
REMARK    3  A    between atoms: _3  and  _6
REMARK    4  A    between atoms: _6  and  _7
REMARK    5  A    between atoms: _7  and  _8
REMARK    6  A    between atoms: _8  and  _9
REMARK    7  A    between atoms: _18  and  _20
REMARK    8  A    between atoms: _20  and  _21
REMARK    9  A    between atoms: _20  and  _23
REMARK   10  A    between atoms: _23  and  _24
REMARK   11  A    between atoms: _27  and  _29
REMARK   12  A    between atoms: _29  and  _30
REMARK   13  A    between atoms: _29  and  _32
REMARK   14  A    between atoms: _32  and  _33
REMARK   15  A    between atoms: _36  and  _38
REMARK   16  A    between atoms: _38  and  _39
REMARK   17  A    between atoms: _38  and  _41
REMARK   18  A    between atoms: _41  and  _42
REMARK   19  A    between atoms: _45  and  _47
REMARK   20  A    between atoms: _47  and  _48
REMARK   21  A    between atoms: _47  and  _50
REMARK   22  A    between atoms: _50  and  _51
REMARK   23  A    between atoms: _54  and  _56
REMARK   24  A    between atoms: _56  and  _57
REMARK   25  A    between atoms: _59  and  _61
REMARK   26  A    between atoms: _61  and  _62
REMARK   27  A    between atoms: _65  and  _67
REMARK   28  A    between atoms: _67  and  _68
REMARK   29  A    between atoms: _67  and  _70
REMARK   30  A    between atoms: _70  and  _71
REMARK   31  A    between atoms: _74  and  _76
REMARK   32  A    between atoms: _76  and  _77
REMARK   33  A    between atoms: _76  and  _79
REMARK   34  A    between atoms: _79  and  _80
REMARK   35  A    between atoms: _83  and  _85
REMARK   36  A    between atoms: _85  and  _86
REMARK   37  A    between atoms: _85  and  _88
REMARK   38  A    between atoms: _88  and  _89
REMARK   39  A    between atoms: _92  and  _94
REMARK   40  A    between atoms: _94  and  _95
REMARK   41  A    between atoms: _94  and  _97
REMARK   42  A    between atoms: _100  and  _102
REMARK   43  A    between atoms: _102  and  _103
REMARK   44  A    between atoms: _102  and  _105
REMARK   45  A    between atoms: _105  and  _106
REMARK   46  A    between atoms: _106  and  _107
REMARK   47  A    between atoms: _107  and  _108
REMARK   48  A    between atoms: _108  and  _109
REMARK   49  A    between atoms: _113  and  _115
REMARK   50  A    between atoms: _115  and  _116
REMARK   51  A    between atoms: _115  and  _118
REMARK   52  A    between atoms: _118  and  _119
REMARK   53  A    between atoms: _119  and  _120
REMARK   54  A    between atoms: _122  and  _124
REMARK   55  A    between atoms: _124  and  _125
REMARK   56  A    between atoms: _124  and  _127
REMARK   57  A    between atoms: _127  and  _128
REMARK   58  A    between atoms: _131  and  _133
REMARK   59  A    between atoms: _133  and  _134
REMARK   60  A    between atoms: _136  and  _138
REMARK   61  A    between atoms: _138  and  _139
REMARK   62  A    between atoms: _141  and  _143
REMARK   63  A    between atoms: _143  and  _144
REMARK   64  A    between atoms: _143  and  _146
REMARK   65  A    between atoms: _146  and  _147
REMARK   66  A    between atoms: _150  and  _152
REMARK   67  A    between atoms: _152  and  _153
REMARK   68  A    between atoms: _155  and  _157
REMARK   69  A    between atoms: _157  and  _158
REMARK   70  A    between atoms: _160  and  _162
REMARK   71  A    between atoms: _162  and  _163
REMARK   72  A    between atoms: _162  and  _165
REMARK   73  A    between atoms: _165  and  _166
REMARK   74  A    between atoms: _172  and  _174
REMARK   75  A    between atoms: _174  and  _175
REMARK   76  A    between atoms: _174  and  _177
REMARK   77  A    between atoms: _177  and  _178
REMARK   78  A    between atoms: _181  and  _183
REMARK   79  A    between atoms: _183  and  _184
REMARK   80  A    between atoms: _183  and  _186
REMARK   81  A    between atoms: _186  and  _187
REMARK   82  A    between atoms: _190  and  _192
REMARK   83  A    between atoms: _192  and  _193
REMARK   84  A    between atoms: _192  and  _195
REMARK   85  A    between atoms: _195  and  _196
REMARK   86  A    between atoms: _200  and  _201
REMARK   87  A    between atoms: _206  and  _208
REMARK   88  A    between atoms: _208  and  _209
REMARK   89  A    between atoms: _212  and  _214
REMARK   90  A    between atoms: _214  and  _215
REMARK   91  A    between atoms: _214  and  _217
REMARK   92  A    between atoms: _217  and  _218
REMARK   93  A    between atoms: _223  and  _225
REMARK   94  A    between atoms: _225  and  _226
REMARK   95  A    between atoms: _225  and  _228
REMARK   96  A    between atoms: _228  and  _229
REMARK   97  A    between atoms: _232  and  _234
REMARK   98  A    between atoms: _234  and  _235
REMARK   99  A    between atoms: _237  and  _239
REMARK  100  A    between atoms: _239  and  _240
REMARK  101  A    between atoms: _239  and  _242
REMARK  102  A    between atoms: _242  and  _243
REMARK  103  A    between atoms: _243  and  _244
REMARK  104  A    between atoms: _244  and  _245
REMARK  105  A    between atoms: _254  and  _256
REMARK  106  A    between atoms: _256  and  _257
REMARK  107  A    between atoms: _256  and  _259
REMARK  108  A    between atoms: _259  and  _260
REMARK  109  A    between atoms: _265  and  _267
REMARK  110  A    between atoms: _267  and  _268
REMARK  111  A    between atoms: _267  and  _270
REMARK  112  A    between atoms: _270  and  _271
REMARK  113  A    between atoms: _271  and  _272
REMARK  114  A    between atoms: _272  and  _273
REMARK  115  A    between atoms: _282  and  _284
REMARK  116  A    between atoms: _284  and  _285
REMARK  117  A    between atoms: _284  and  _287
REMARK  118  A    between atoms: _287  and  _288
REMARK  119  A    between atoms: _291  and  _293
REMARK  120  A    between atoms: _293  and  _294
REMARK  121  A    between atoms: _293  and  _296
REMARK  122  A    between atoms: _296  and  _297
REMARK  123  A    between atoms: _300  and  _302
REMARK  124  A    between atoms: _302  and  _303
REMARK  125  A    between atoms: _302  and  _305
REMARK  126  A    between atoms: _305  and  _306
REMARK  127  A    between atoms: _309  and  _311
REMARK  128  A    between atoms: _311  and  _312
REMARK  129  A    between atoms: _311  and  _314
REMARK  130  A    between atoms: _314  and  _315
REMARK  131  A    between atoms: _318  and  _320
REMARK  132  A    between atoms: _320  and  _321
REMARK  133  A    between atoms: _323  and  _325
REMARK  134  A    between atoms: _325  and  _326
REMARK  135  A    between atoms: _329  and  _331
REMARK  136  A    between atoms: _331  and  _332
REMARK  137  A    between atoms: _331  and  _334
REMARK  138  A    between atoms: _334  and  _335
REMARK  139  A    between atoms: _338  and  _340
REMARK  140  A    between atoms: _340  and  _341
REMARK  141  A    between atoms: _340  and  _343
REMARK  142  A    between atoms: _343  and  _344
REMARK  143  A    between atoms: _347  and  _349
REMARK  144  A    between atoms: _349  and  _350
REMARK  145  A    between atoms: _349  and  _352
REMARK  146  A    between atoms: _352  and  _353
REMARK  147  A    between atoms: _356  and  _358
REMARK  148  A    between atoms: _358  and  _359
REMARK  149  A    between atoms: _358  and  _361
REMARK  150  A    between atoms: _364  and  _366
REMARK  151  A    between atoms: _366  and  _367
REMARK  152  A    between atoms: _366  and  _369
REMARK  153  A    between atoms: _369  and  _370
REMARK  154  A    between atoms: _370  and  _371
REMARK  155  A    between atoms: _371  and  _372
REMARK  156  A    between atoms: _372  and  _373
REMARK  157  A    between atoms: _377  and  _379
REMARK  158  A    between atoms: _379  and  _380
REMARK  159  A    between atoms: _379  and  _382
REMARK  160  A    between atoms: _382  and  _383
REMARK  161  A    between atoms: _383  and  _384
REMARK  162  A    between atoms: _386  and  _388
REMARK  163  A    between atoms: _388  and  _389
REMARK  164  A    between atoms: _388  and  _391
REMARK  165  A    between atoms: _391  and  _392
REMARK  166  A    between atoms: _395  and  _397
REMARK  167  A    between atoms: _397  and  _398
REMARK  168  A    between atoms: _400  and  _402
REMARK  169  A    between atoms: _402  and  _403
REMARK  170  A    between atoms: _405  and  _407
REMARK  171  A    between atoms: _407  and  _408
REMARK  172  A    between atoms: _407  and  _410
REMARK  173  A    between atoms: _410  and  _411
REMARK  174  A    between atoms: _414  and  _416
REMARK  175  A    between atoms: _416  and  _417
REMARK  176  A    between atoms: _419  and  _421
REMARK  177  A    between atoms: _421  and  _422
REMARK  178  A    between atoms: _424  and  _426
REMARK  179  A    between atoms: _426  and  _427
REMARK  180  A    between atoms: _426  and  _429
REMARK  181  A    between atoms: _429  and  _430
REMARK  182  A    between atoms: _433  and  _435
REMARK  183  A    between atoms: _435  and  _436
REMARK  184  A    between atoms: _435  and  _438
REMARK  185  A    between atoms: _441  and  _443
REMARK  186  A    between atoms: _443  and  _444
REMARK  187  A    between atoms: _443  and  _446
REMARK  188  A    between atoms: _446  and  _447
REMARK  189  A    between atoms: _451  and  _452
REMARK  190  A    between atoms: _457  and  _459
REMARK  191  A    between atoms: _459  and  _460
REMARK  192  A    between atoms: _459  and  _462
REMARK  193  A    between atoms: _462  and  _463
REMARK  194  A    between atoms: _467  and  _468
REMARK  195  A    between atoms: _473  and  _475
REMARK  196  A    between atoms: _475  and  _476
REMARK  197  A    between atoms: _479  and  _481
REMARK  198  A    between atoms: _481  and  _482
REMARK  199  A    between atoms: _481  and  _484
REMARK  200  A    between atoms: _484  and  _485
REMARK  201  A    between atoms: _490  and  _492
REMARK  202  A    between atoms: _492  and  _493
REMARK  203  A    between atoms: _492  and  _495
REMARK  204  A    between atoms: _495  and  _496
REMARK  205  A    between atoms: _499  and  _501
REMARK  206  A    between atoms: _501  and  _502
REMARK  207  A    between atoms: _501  and  _504
REMARK  208  A    between atoms: _504  and  _505
REMARK  209  A    between atoms: _508  and  _510
REMARK  210  A    between atoms: _510  and  _511
REMARK  211  A    between atoms: _513  and  _515
REMARK  212  A    between atoms: _515  and  _516
REMARK  213  A    between atoms: _515  and  _518
REMARK  214  A    between atoms: _518  and  _519
REMARK  215  A    between atoms: _519  and  _520
REMARK  216  A    between atoms: _520  and  _521
REMARK  217  A    between atoms: _530  and  _532
REMARK  218  A    between atoms: _532  and  _533
REMARK  219  A    between atoms: _532  and  _535
REMARK  220  A    between atoms: _535  and  _536
REMARK                            x       y       z     vdW  Elec       q    Type
REMARK                         _______ _______ _______ _____ _____    ______ ____
ROOT
ATOM      1  CA  ARG A   2      12.751  -7.973 -17.582  0.00  0.00    +0.149 C 
ENDROOT
BRANCH   1   4
ATOM      2  C   GLY A   1      13.489  -9.303 -15.692  0.00  0.00    +0.240 C 
ATOM      3  O   GLY A   1      14.038  -8.333 -15.163  0.00  0.00    -0.274 OA
ATOM      4  N   ARG A   2      12.761  -9.210 -16.801  0.00  0.00    -0.297 N 
ATOM      5  H   ARG A   2      12.194 -10.023 -17.116  0.00  0.00    +0.150 HD
BRANCH   2   6
ATOM      6  CA  GLY A   1      13.567 -10.672 -15.110  0.00  0.00    +0.169 C 
BRANCH   6   7
ATOM      7  N   GLY A   1      14.280 -10.742 -13.873  0.00  0.00    -0.236 NA
ATOM      8  H   GLY A   1      13.781 -10.553 -12.980  0.00  0.00    +0.142 HD
ENDBRANCH   6   7
ENDBRANCH   2   6
ENDBRANCH   1   4
BRANCH   1   9
ATOM      9  C   ARG A   2      12.230  -6.788 -16.811  0.00  0.00    +0.241 C 
ATOM     10  N   ASN A   3      11.322  -6.993 -15.892  0.00  0.00    -0.298 N 
ATOM     11  H   ASN A   3      10.983  -7.959 -15.711  0.00  0.00    +0.150 HD
ATOM     12  O   ARG A   2      12.636  -5.665 -17.058  0.00  0.00    -0.273 OA
BRANCH  10  13
ATOM     13  CA  ASN A   3      10.776  -5.875 -15.114  0.00  0.00    +0.146 C 
BRANCH  13  14
ATOM     14  C   ASN A   3      11.828  -5.089 -14.363  0.00  0.00    +0.227 C 
ATOM     15  O   ASN A   3      11.647  -3.877 -14.146  0.00  0.00    -0.286 OA
ENDBRANCH  13  14
BRANCH  13  16
ATOM     16  CB  ASN A   3       9.672  -6.354 -14.151  0.00  0.00    +0.112 C 
BRANCH  16  17
ATOM     17  CG  ASN A   3      10.243  -7.056 -12.943  0.00  0.00    +0.222 C 
ATOM     18  ND2 ASN A   3       9.939  -6.563 -11.746  0.00  0.00    -0.329 N 
ATOM     19 HD21 ASN A   3      10.317  -7.012 -10.887  0.00  0.00    +0.145 HD
ATOM     20 HD22 ASN A   3       9.323  -5.729 -11.668  0.00  0.00    +0.145 HD
ATOM     21  OD1 ASN A   3      10.969  -8.041 -13.061  0.00  0.00    -0.275 OA
ENDBRANCH  16  17
ENDBRANCH  13  16
ENDBRANCH  10  13
ENDBRANCH   1   9
BRANCH   1  22
ATOM     22  CB  ARG A   2      11.931  -8.156 -18.852  0.00  0.00    +0.033 C 
BRANCH  22  23
ATOM     23  CG  ARG A   2      12.556  -9.131 -19.837  0.00  0.00    +0.045 C 
BRANCH  23  24
ATOM     24  CD  ARG A   2      11.837  -9.199 -21.177  0.00  0.00    +0.174 C 
BRANCH  24  25
ATOM     25  NE  ARG A   2      10.446  -9.596 -21.024  0.00  0.00    -0.265 N 
ATOM     26  HE  ARG A   2      10.290 -10.621 -20.941  0.00  0.00    +0.259 HD
ATOM     27  CZ  ARG A   2       9.356  -8.864 -20.974  0.00  0.00    +0.342 C 
ATOM     28  NH2 ARG A   2       8.162  -9.421 -20.798  0.00  0.00    -0.292 N 
ATOM     29 HH21 ARG A   2       8.079 -10.453 -20.697  0.00  0.00    +0.255 HD
ATOM     30 HH22 ARG A   2       7.311  -8.825 -20.761  0.00  0.00    +0.255 HD
ATOM     31  NH1 ARG A   2       9.394  -7.533 -21.132  0.00  0.00    -0.292 N 
ATOM     32 HH11 ARG A   2       8.515  -6.979 -21.088  0.00  0.00    +0.255 HD
ATOM     33 HH12 ARG A   2      10.302  -7.055 -21.299  0.00  0.00    +0.255 HD
ENDBRANCH  24  25
ENDBRANCH  23  24
ENDBRANCH  22  23
ENDBRANCH   1  22
TORSDOF 12
REMARK  Name = ../refined-set-2016/4hdf/4hdf_pocket.pdb
REMARK  220 active torsions:
REMARK  status: ('A' for Active; 'I' for Inactive)
REMARK    1  A    between atoms: _1  and  _3
REMARK    2  A    between atoms: _3  and  _4
REMARK    3  A    between atoms: _3  and  _6
REMARK    4  A    between atoms: _6  and  _7
REMARK    5  A    between atoms: _7  and  _8
REMARK    6  A    between atoms: _8  and  _9
REMARK    7  A    between atoms: _18  and  _20
REMARK    8  A    between atoms: _20  and  _21
REMARK    9  A    between atoms: _20  and  _23
REMARK   10  A    between atoms: _23  and  _24
REMARK   11  A    between atoms: _27  and  _29
REMARK   12  A    between atoms: _29  and  _30
REMARK   13  A    between atoms: _29  and  _32
REMARK   14  A    between atoms: _32  and  _33
REMARK   15  A    between atoms: _36  and  _38
REMARK   16  A    between atoms: _38  and  _39
REMARK   17  A    between atoms: _38  and  _41
REMARK   18  A    between atoms: _41  and  _42
REMARK   19  A    between atoms: _45  and  _47
REMARK   20  A    between atoms: _47  and  _48
REMARK   21  A    between atoms: _47  and  _50
REMARK   22  A    between atoms: _50  and  _51
REMARK   23  A    between atoms: _54  and  _56
REMARK   24  A    between atoms: _56  and  _57
REMARK   25  A    between atoms: _59  and  _61
REMARK   26  A    between atoms: _61  and  _62
REMARK   27  A    between atoms: _65  and  _67
REMARK   28  A    between atoms: _67  and  _68
REMARK   29  A    between atoms: _67  and  _70
REMARK   30  A    between atoms: _70  and  _71
REMARK   31  A    between atoms: _74  and  _76
REMARK   32  A    between atoms: _76  and  _77
REMARK   33  A    between atoms: _76  and  _79
REMARK   34  A    between atoms: _79  and  _80
REMARK   35  A    between atoms: _83  and  _85
REMARK   36  A    between atoms: _85  and  _86
REMARK   37  A    between atoms: _85  and  _88
REMARK   38  A    between atoms: _88  and  _89
REMARK   39  A    between atoms: _92  and  _94
REMARK   40  A    between atoms: _94  and  _95
REMARK   41  A    between atoms: _94  and  _97
REMARK   42  A    between atoms: _100  and  _102
REMARK   43  A    between atoms: _102  and  _103
REMARK   44  A    between atoms: _102  and  _105
REMARK   45  A    between atoms: _105  and  _106
REMARK   46  A    between atoms: _106  and  _107
REMARK   47  A    between atoms: _107  and  _108
REMARK   48  A    between atoms: _108  and  _109
REMARK   49  A    between atoms: _113  and  _115
REMARK   50  A    between atoms: _115  and  _116
REMARK   51  A    between atoms: _115  and  _118
REMARK   52  A    between atoms: _118  and  _119
REMARK   53  A    between atoms: _119  and  _120
REMARK   54  A    between atoms: _122  and  _124
REMARK   55  A    between atoms: _124  and  _125
REMARK   56  A    between atoms: _124  and  _127
REMARK   57  A    between atoms: _127  and  _128
REMARK   58  A    between atoms: _131  and  _133
REMARK   59  A    between atoms: _133  and  _134
REMARK   60  A    between atoms: _136  and  _138
REMARK   61  A    between atoms: _138  and  _139
REMARK   62  A    between atoms: _141  and  _143
REMARK   63  A    between atoms: _143  and  _144
REMARK   64  A    between atoms: _143  and  _146
REMARK   65  A    between atoms: _146  and  _147
REMARK   66  A    between atoms: _150  and  _152
REMARK   67  A    between atoms: _152  and  _153
REMARK   68  A    between atoms: _155  and  _157
REMARK   69  A    between atoms: _157  and  _158
REMARK   70  A    between atoms: _160  and  _162
REMARK   71  A    between atoms: _162  and  _163
REMARK   72  A    between atoms: _162  and  _165
REMARK   73  A    between atoms: _165  and  _166
REMARK   74  A    between atoms: _172  and  _174
REMARK   75  A    between atoms: _174  and  _175
REMARK   76  A    between atoms: _174  and  _177
REMARK   77  A    between atoms: _177  and  _178
REMARK   78  A    between atoms: _181  and  _183
REMARK   79  A    between atoms: _183  and  _184
REMARK   80  A    between atoms: _183  and  _186
REMARK   81  A    between atoms: _186  and  _187
REMARK   82  A    between atoms: _190  and  _192
REMARK   83  A    between atoms: _192  and  _193
REMARK   84  A    between atoms: _192  and  _195
REMARK   85  A    between atoms: _195  and  _196
REMARK   86  A    between atoms: _200  and  _201
REMARK   87  A    between atoms: _206  and  _208
REMARK   88  A    between atoms: _208  and  _209
REMARK   89  A    between atoms: _212  and  _214
REMARK   90  A    between atoms: _214  and  _215
REMARK   91  A    between atoms: _214  and  _217
REMARK   92  A    between atoms: _217  and  _218
REMARK   93  A    between atoms: _223  and  _225
REMARK   94  A    between atoms: _225  and  _226
REMARK   95  A    between atoms: _225  and  _228
REMARK   96  A    between atoms: _228  and  _229
REMARK   97  A    between atoms: _232  and  _234
REMARK   98  A    between atoms: _234  and  _235
REMARK   99  A    between atoms: _237  and  _239
REMARK  100  A    between atoms: _239  and  _240
REMARK  101  A    between atoms: _239  and  _242
REMARK  102  A    between atoms: _242  and  _243
REMARK  103  A    between atoms: _243  and  _244
REMARK  104  A    between atoms: _244  and  _245
REMARK  105  A    between atoms: _254  and  _256
REMARK  106  A    between atoms: _256  and  _257
REMARK  107  A    between atoms: _256  and  _259
REMARK  108  A    between atoms: _259  and  _260
REMARK  109  A    between atoms: _265  and  _267
REMARK  110  A    between atoms: _267  and  _268
REMARK  111  A    between atoms: _267  and  _270
REMARK  112  A    between atoms: _270  and  _271
REMARK  113  A    between atoms: _271  and  _272
REMARK  114  A    between atoms: _272  and  _273
REMARK  115  A    between atoms: _282  and  _284
REMARK  116  A    between atoms: _284  and  _285
REMARK  117  A    between atoms: _284  and  _287
REMARK  118  A    between atoms: _287  and  _288
REMARK  119  A    between atoms: _291  and  _293
REMARK  120  A    between atoms: _293  and  _294
REMARK  121  A    between atoms: _293  and  _296
REMARK  122  A    between atoms: _296  and  _297
REMARK  123  A    between atoms: _300  and  _302
REMARK  124  A    between atoms: _302  and  _303
REMARK  125  A    between atoms: _302  and  _305
REMARK  126  A    between atoms: _305  and  _306
REMARK  127  A    between atoms: _309  and  _311
REMARK  128  A    between atoms: _311  and  _312
REMARK  129  A    between atoms: _311  and  _314
REMARK  130  A    between atoms: _314  and  _315
REMARK  131  A    between atoms: _318  and  _320
REMARK  132  A    between atoms: _320  and  _321
REMARK  133  A    between atoms: _323  and  _325
REMARK  134  A    between atoms: _325  and  _326
REMARK  135  A    between atoms: _329  and  _331
REMARK  136  A    between atoms: _331  and  _332
REMARK  137  A    between atoms: _331  and  _334
REMARK  138  A    between atoms: _334  and  _335
REMARK  139  A    between atoms: _338  and  _340
REMARK  140  A    between atoms: _340  and  _341
REMARK  141  A    between atoms: _340  and  _343
REMARK  142  A    between atoms: _343  and  _344
REMARK  143  A    between atoms: _347  and  _349
REMARK  144  A    between atoms: _349  and  _350
REMARK  145  A    between atoms: _349  and  _352
REMARK  146  A    between atoms: _352  and  _353
REMARK  147  A    between atoms: _356  and  _358
REMARK  148  A    between atoms: _358  and  _359
REMARK  149  A    between atoms: _358  and  _361
REMARK  150  A    between atoms: _364  and  _366
REMARK  151  A    between atoms: _366  and  _367
REMARK  152  A    between atoms: _366  and  _369
REMARK  153  A    between atoms: _369  and  _370
REMARK  154  A    between atoms: _370  and  _371
REMARK  155  A    between atoms: _371  and  _372
REMARK  156  A    between atoms: _372  and  _373
REMARK  157  A    between atoms: _377  and  _379
REMARK  158  A    between atoms: _379  and  _380
REMARK  159  A    between atoms: _379  and  _382
REMARK  160  A    between atoms: _382  and  _383
REMARK  161  A    between atoms: _383  and  _384
REMARK  162  A    between atoms: _386  and  _388
REMARK  163  A    between atoms: _388  and  _389
REMARK  164  A    between atoms: _388  and  _391
REMARK  165  A    between atoms: _391  and  _392
REMARK  166  A    between atoms: _395  and  _397
REMARK  167  A    between atoms: _397  and  _398
REMARK  168  A    between atoms: _400  and  _402
REMARK  169  A    between atoms: _402  and  _403
REMARK  170  A    between atoms: _405  and  _407
REMARK  171  A    between atoms: _407  and  _408
REMARK  172  A    between atoms: _407  and  _410
REMARK  173  A    between atoms: _410  and  _411
REMARK  174  A    between atoms: _414  and  _416
REMARK  175  A    between atoms: _416  and  _417
REMARK  176  A    between atoms: _419  and  _421
REMARK  177  A    between atoms: _421  and  _422
REMARK  178  A    between atoms: _424  and  _426
REMARK  179  A    between atoms: _426  and  _427
REMARK  180  A    between atoms: _426  and  _429
REMARK  181  A    between atoms: _429  and  _430
REMARK  182  A    between atoms: _433  and  _435
REMARK  183  A    between atoms: _435  and  _436
REMARK  184  A    between atoms: _435  and  _438
REMARK  185  A    between atoms: _441  and  _443
REMARK  186  A    between atoms: _443  and  _444
REMARK  187  A    between atoms: _443  and  _446
REMARK  188  A    between atoms: _446  and  _447
REMARK  189  A    between atoms: _451  and  _452
REMARK  190  A    between atoms: _457  and  _459
REMARK  191  A    between atoms: _459  and  _460
REMARK  192  A    between atoms: _459  and  _462
REMARK  193  A    between atoms: _462  and  _463
REMARK  194  A    between atoms: _467  and  _468
REMARK  195  A    between atoms: _473  and  _475
REMARK  196  A    between atoms: _475  and  _476
REMARK  197  A    between atoms: _479  and  _481
REMARK  198  A    between atoms: _481  and  _482
REMARK  199  A    between atoms: _481  and  _484
REMARK  200  A    between atoms: _484  and  _485
REMARK  201  A    between atoms: _490  and  _492
REMARK  202  A    between atoms: _492  and  _493
REMARK  203  A    between atoms: _492  and  _495
REMARK  204  A    between atoms: _495  and  _496
REMARK  205  A    between atoms: _499  and  _501
REMARK  206  A    between atoms: _501  and  _502
REMARK  207  A    between atoms: _501  and  _504
REMARK  208  A    between atoms: _504  and  _505
REMARK  209  A    between atoms: _508  and  _510
REMARK  210  A    between atoms: _510  and  _511
REMARK  211  A    between atoms: _513  and  _515
REMARK  212  A    between atoms: _515  and  _516
REMARK  213  A    between atoms: _515  and  _518
REMARK  214  A    between atoms: _518  and  _519
REMARK  215  A    between atoms: _519  and  _520
REMARK  216  A    between atoms: _520  and  _521
REMARK  217  A    between atoms: _530  and  _532
REMARK  218  A    between atoms: _532  and  _533
REMARK  219  A    between atoms: _532  and  _535
REMARK  220  A    between atoms: _535  and  _536
REMARK                            x       y       z     vdW  Elec       q    Type
REMARK                         _______ _______ _______ _____ _____    ______ ____
ROOT
ATOM      1  NE  ARG A   1       6.238 -12.886 -22.629  0.00  0.00    -0.265 N 
ATOM      2  HE  ARG A   1       6.664 -12.562 -21.737  0.00  0.00    +0.259 HD
ATOM      3  CZ  ARG A   1       5.134 -13.605 -22.548  0.00  0.00    +0.342 C 
ATOM      4  NH2 ARG A   1       4.622 -13.884 -21.345  0.00  0.00    -0.292 N 
ATOM      5 HH21 ARG A   1       5.093 -13.535 -20.486  0.00  0.00    +0.255 HD
ATOM      6 HH22 ARG A   1       3.753 -14.450 -21.268  0.00  0.00    +0.255 HD
ATOM      7  NH1 ARG A   1       4.531 -14.038 -23.655  0.00  0.00    -0.292 N 
ATOM      8 HH11 ARG A   1       3.661 -14.604 -23.586  0.00  0.00    +0.255 HD
ATOM      9 HH12 ARG A   1       4.930 -13.810 -24.588  0.00  0.00    +0.255 HD
ENDROOT
BRANCH   1  10
ATOM     10  CD  ARG A   1       6.913 -12.507 -23.874  0.00  0.00    +0.174 C 
BRANCH  10  11
ATOM     11  CG  ARG A   1       7.872 -11.362 -23.622  0.00  0.00    +0.045 C 
BRANCH  11  12
ATOM     12  CB  ARG A   1       8.607 -11.025 -24.895  0.00  0.00    +0.029 C 
BRANCH  12  13
ATOM     13  CA  ARG A   1       9.627  -9.904 -24.728  0.00  0.00    +0.133 C 
BRANCH  13  14
ATOM     14  N   ARG A   1       8.929  -8.635 -24.607  0.00  0.00    -0.239 NA
ATOM     15  H   ARG A   1       7.890  -8.625 -24.661  0.00  0.00    +0.142 HD
ENDBRANCH  13  14
BRANCH  13  16
ATOM     16  C   ARG A   1      10.592  -9.881 -25.913  0.00  0.00    +0.224 C 
ATOM     17  O   ARG A   1      10.216  -9.383 -26.966  0.00  0.00    -0.287 OA
ENDBRANCH  13  16
ENDBRANCH  12  13
ENDBRANCH  11  12
ENDBRANCH  10  11
ENDBRANCH   1  10
TORSDOF 6
REMARK  Name = ../refined-set-2016/4hdf/4hdf_pocket.pdb
REMARK  220 active torsions:
REMARK  status: ('A' for Active; 'I' for Inactive)
REMARK    1  A    between atoms: _1  and  _3
REMARK    2  A    between atoms: _3  and  _4
REMARK    3  A    between atoms: _3  and  _6
REMARK    4  A    between atoms: _6  and  _7
REMARK    5  A    between atoms: _7  and  _8
REMARK    6  A    between atoms: _8  and  _9
REMARK    7  A    between atoms: _18  and  _20
REMARK    8  A    between atoms: _20  and  _21
REMARK    9  A    between atoms: _20  and  _23
REMARK   10  A    between atoms: _23  and  _24
REMARK   11  A    between atoms: _27  and  _29
REMARK   12  A    between atoms: _29  and  _30
REMARK   13  A    between atoms: _29  and  _32
REMARK   14  A    between atoms: _32  and  _33
REMARK   15  A    between atoms: _36  and  _38
REMARK   16  A    between atoms: _38  and  _39
REMARK   17  A    between atoms: _38  and  _41
REMARK   18  A    between atoms: _41  and  _42
REMARK   19  A    between atoms: _45  and  _47
REMARK   20  A    between atoms: _47  and  _48
REMARK   21  A    between atoms: _47  and  _50
REMARK   22  A    between atoms: _50  and  _51
REMARK   23  A    between atoms: _54  and  _56
REMARK   24  A    between atoms: _56  and  _57
REMARK   25  A    between atoms: _59  and  _61
REMARK   26  A    between atoms: _61  and  _62
REMARK   27  A    between atoms: _65  and  _67
REMARK   28  A    between atoms: _67  and  _68
REMARK   29  A    between atoms: _67  and  _70
REMARK   30  A    between atoms: _70  and  _71
REMARK   31  A    between atoms: _74  and  _76
REMARK   32  A    between atoms: _76  and  _77
REMARK   33  A    between atoms: _76  and  _79
REMARK   34  A    between atoms: _79  and  _80
REMARK   35  A    between atoms: _83  and  _85
REMARK   36  A    between atoms: _85  and  _86
REMARK   37  A    between atoms: _85  and  _88
REMARK   38  A    between atoms: _88  and  _89
REMARK   39  A    between atoms: _92  and  _94
REMARK   40  A    between atoms: _94  and  _95
REMARK   41  A    between atoms: _94  and  _97
REMARK   42  A    between atoms: _100  and  _102
REMARK   43  A    between atoms: _102  and  _103
REMARK   44  A    between atoms: _102  and  _105
REMARK   45  A    between atoms: _105  and  _106
REMARK   46  A    between atoms: _106  and  _107
REMARK   47  A    between atoms: _107  and  _108
REMARK   48  A    between atoms: _108  and  _109
REMARK   49  A    between atoms: _113  and  _115
REMARK   50  A    between atoms: _115  and  _116
REMARK   51  A    between atoms: _115  and  _118
REMARK   52  A    between atoms: _118  and  _119
REMARK   53  A    between atoms: _119  and  _120
REMARK   54  A    between atoms: _122  and  _124
REMARK   55  A    between atoms: _124  and  _125
REMARK   56  A    between atoms: _124  and  _127
REMARK   57  A    between atoms: _127  and  _128
REMARK   58  A    between atoms: _131  and  _133
REMARK   59  A    between atoms: _133  and  _134
REMARK   60  A    between atoms: _136  and  _138
REMARK   61  A    between atoms: _138  and  _139
REMARK   62  A    between atoms: _141  and  _143
REMARK   63  A    between atoms: _143  and  _144
REMARK   64  A    between atoms: _143  and  _146
REMARK   65  A    between atoms: _146  and  _147
REMARK   66  A    between atoms: _150  and  _152
REMARK   67  A    between atoms: _152  and  _153
REMARK   68  A    between atoms: _155  and  _157
REMARK   69  A    between atoms: _157  and  _158
REMARK   70  A    between atoms: _160  and  _162
REMARK   71  A    between atoms: _162  and  _163
REMARK   72  A    between atoms: _162  and  _165
REMARK   73  A    between atoms: _165  and  _166
REMARK   74  A    between atoms: _172  and  _174
REMARK   75  A    between atoms: _174  and  _175
REMARK   76  A    between atoms: _174  and  _177
REMARK   77  A    between atoms: _177  and  _178
REMARK   78  A    between atoms: _181  and  _183
REMARK   79  A    between atoms: _183  and  _184
REMARK   80  A    between atoms: _183  and  _186
REMARK   81  A    between atoms: _186  and  _187
REMARK   82  A    between atoms: _190  and  _192
REMARK   83  A    between atoms: _192  and  _193
REMARK   84  A    between atoms: _192  and  _195
REMARK   85  A    between atoms: _195  and  _196
REMARK   86  A    between atoms: _200  and  _201
REMARK   87  A    between atoms: _206  and  _208
REMARK   88  A    between atoms: _208  and  _209
REMARK   89  A    between atoms: _212  and  _214
REMARK   90  A    between atoms: _214  and  _215
REMARK   91  A    between atoms: _214  and  _217
REMARK   92  A    between atoms: _217  and  _218
REMARK   93  A    between atoms: _223  and  _225
REMARK   94  A    between atoms: _225  and  _226
REMARK   95  A    between atoms: _225  and  _228
REMARK   96  A    between atoms: _228  and  _229
REMARK   97  A    between atoms: _232  and  _234
REMARK   98  A    between atoms: _234  and  _235
REMARK   99  A    between atoms: _237  and  _239
REMARK  100  A    between atoms: _239  and  _240
REMARK  101  A    between atoms: _239  and  _242
REMARK  102  A    between atoms: _242  and  _243
REMARK  103  A    between atoms: _243  and  _244
REMARK  104  A    between atoms: _244  and  _245
REMARK  105  A    between atoms: _254  and  _256
REMARK  106  A    between atoms: _256  and  _257
REMARK  107  A    between atoms: _256  and  _259
REMARK  108  A    between atoms: _259  and  _260
REMARK  109  A    between atoms: _265  and  _267
REMARK  110  A    between atoms: _267  and  _268
REMARK  111  A    between atoms: _267  and  _270
REMARK  112  A    between atoms: _270  and  _271
REMARK  113  A    between atoms: _271  and  _272
REMARK  114  A    between atoms: _272  and  _273
REMARK  115  A    between atoms: _282  and  _284
REMARK  116  A    between atoms: _284  and  _285
REMARK  117  A    between atoms: _284  and  _287
REMARK  118  A    between atoms: _287  and  _288
REMARK  119  A    between atoms: _291  and  _293
REMARK  120  A    between atoms: _293  and  _294
REMARK  121  A    between atoms: _293  and  _296
REMARK  122  A    between atoms: _296  and  _297
REMARK  123  A    between atoms: _300  and  _302
REMARK  124  A    between atoms: _302  and  _303
REMARK  125  A    between atoms: _302  and  _305
REMARK  126  A    between atoms: _305  and  _306
REMARK  127  A    between atoms: _309  and  _311
REMARK  128  A    between atoms: _311  and  _312
REMARK  129  A    between atoms: _311  and  _314
REMARK  130  A    between atoms: _314  and  _315
REMARK  131  A    between atoms: _318  and  _320
REMARK  132  A    between atoms: _320  and  _321
REMARK  133  A    between atoms: _323  and  _325
REMARK  134  A    between atoms: _325  and  _326
REMARK  135  A    between atoms: _329  and  _331
REMARK  136  A    between atoms: _331  and  _332
REMARK  137  A    between atoms: _331  and  _334
REMARK  138  A    between atoms: _334  and  _335
REMARK  139  A    between atoms: _338  and  _340
REMARK  140  A    between atoms: _340  and  _341
REMARK  141  A    between atoms: _340  and  _343
REMARK  142  A    between atoms: _343  and  _344
REMARK  143  A    between atoms: _347  and  _349
REMARK  144  A    between atoms: _349  and  _350
REMARK  145  A    between atoms: _349  and  _352
REMARK  146  A    between atoms: _352  and  _353
REMARK  147  A    between atoms: _356  and  _358
REMARK  148  A    between atoms: _358  and  _359
REMARK  149  A    between atoms: _358  and  _361
REMARK  150  A    between atoms: _364  and  _366
REMARK  151  A    between atoms: _366  and  _367
REMARK  152  A    between atoms: _366  and  _369
REMARK  153  A    between atoms: _369  and  _370
REMARK  154  A    between atoms: _370  and  _371
REMARK  155  A    between atoms: _371  and  _372
REMARK  156  A    between atoms: _372  and  _373
REMARK  157  A    between atoms: _377  and  _379
REMARK  158  A    between atoms: _379  and  _380
REMARK  159  A    between atoms: _379  and  _382
REMARK  160  A    between atoms: _382  and  _383
REMARK  161  A    between atoms: _383  and  _384
REMARK  162  A    between atoms: _386  and  _388
REMARK  163  A    between atoms: _388  and  _389
REMARK  164  A    between atoms: _388  and  _391
REMARK  165  A    between atoms: _391  and  _392
REMARK  166  A    between atoms: _395  and  _397
REMARK  167  A    between atoms: _397  and  _398
REMARK  168  A    between atoms: _400  and  _402
REMARK  169  A    between atoms: _402  and  _403
REMARK  170  A    between atoms: _405  and  _407
REMARK  171  A    between atoms: _407  and  _408
REMARK  172  A    between atoms: _407  and  _410
REMARK  173  A    between atoms: _410  and  _411
REMARK  174  A    between atoms: _414  and  _416
REMARK  175  A    between atoms: _416  and  _417
REMARK  176  A    between atoms: _419  and  _421
REMARK  177  A    between atoms: _421  and  _422
REMARK  178  A    between atoms: _424  and  _426
REMARK  179  A    between atoms: _426  and  _427
REMARK  180  A    between atoms: _426  and  _429
REMARK  181  A    between atoms: _429  and  _430
REMARK  182  A    between atoms: _433  and  _435
REMARK  183  A    between atoms: _435  and  _436
REMARK  184  A    between atoms: _435  and  _438
REMARK  185  A    between atoms: _441  and  _443
REMARK  186  A    between atoms: _443  and  _444
REMARK  187  A    between atoms: _443  and  _446
REMARK  188  A    between atoms: _446  and  _447
REMARK  189  A    between atoms: _451  and  _452
REMARK  190  A    between atoms: _457  and  _459
REMARK  191  A    between atoms: _459  and  _460
REMARK  192  A    between atoms: _459  and  _462
REMARK  193  A    between atoms: _462  and  _463
REMARK  194  A    between atoms: _467  and  _468
REMARK  195  A    between atoms: _473  and  _475
REMARK  196  A    between atoms: _475  and  _476
REMARK  197  A    between atoms: _479  and  _481
REMARK  198  A    between atoms: _481  and  _482
REMARK  199  A    between atoms: _481  and  _484
REMARK  200  A    between atoms: _484  and  _485
REMARK  201  A    between atoms: _490  and  _492
REMARK  202  A    between atoms: _492  and  _493
REMARK  203  A    between atoms: _492  and  _495
REMARK  204  A    between atoms: _495  and  _496
REMARK  205  A    between atoms: _499  and  _501
REMARK  206  A    between atoms: _501  and  _502
REMARK  207  A    between atoms: _501  and  _504
REMARK  208  A    between atoms: _504  and  _505
REMARK  209  A    between atoms: _508  and  _510
REMARK  210  A    between atoms: _510  and  _511
REMARK  211  A    between atoms: _513  and  _515
REMARK  212  A    between atoms: _515  and  _516
REMARK  213  A    between atoms: _515  and  _518
REMARK  214  A    between atoms: _518  and  _519
REMARK  215  A    between atoms: _519  and  _520
REMARK  216  A    between atoms: _520  and  _521
REMARK  217  A    between atoms: _530  and  _532
REMARK  218  A    between atoms: _532  and  _533
REMARK  219  A    between atoms: _532  and  _535
REMARK  220  A    between atoms: _535  and  _536
REMARK                            x       y       z     vdW  Elec       q    Type
REMARK                         _______ _______ _______ _____ _____    ______ ____
ROOT
ATOM      1  C   GLY A   5      18.394 -19.033 -18.833  0.00  0.00    +0.243 C 
ATOM      2  O   GLY A   5      18.260 -19.881 -17.925  0.00  0.00    -0.273 OA
ATOM      3  N   ALA A   6      18.467 -19.380 -20.092  0.00  0.00    -0.297 N 
ATOM      4  H   ALA A   6      18.558 -18.616 -20.792  0.00  0.00    +0.150 HD
ENDROOT
BRANCH   3   5
ATOM      5  CA  ALA A   6      18.432 -20.744 -20.597  0.00  0.00    +0.149 C 
ATOM      6  CB  ALA A   6      17.414 -20.844 -21.739  0.00  0.00    +0.031 C 
BRANCH   5   7
ATOM      7  C   ALA A   6      19.806 -21.212 -21.046  0.00  0.00    +0.241 C 
ATOM      8  N   ASP A   7      20.315 -22.314 -20.479  0.00  0.00    -0.297 N 
ATOM      9  H   ASP A   7      19.798 -22.797 -19.717  0.00  0.00    +0.150 HD
ATOM     10  O   ALA A   6      20.407 -20.590 -21.916  0.00  0.00    -0.273 OA
BRANCH   8  11
ATOM     11  CA  ASP A   7      21.601 -22.832 -20.939  0.00  0.00    +0.160 C 
BRANCH  11  12
ATOM     12  C   ASP A   7      21.461 -23.325 -22.370  0.00  0.00    +0.241 C 
ATOM     13  N   ASP A   8      20.321 -23.930 -22.690  0.00  0.00    -0.297 N 
ATOM     14  H   ASP A   8      19.547 -23.850 -22.000  0.00  0.00    +0.150 HD
ATOM     15  O   ASP A   7      22.372 -23.227 -23.190  0.00  0.00    -0.273 OA
BRANCH  13  16
ATOM     16  CA  ASP A   8      20.033 -24.690 -23.895  0.00  0.00    +0.160 C 
BRANCH  16  17
ATOM     17  C   ASP A   8      18.839 -24.115 -24.645  0.00  0.00    +0.241 C 
ATOM     18  O   ASP A   8      17.996 -23.434 -24.070  0.00  0.00    -0.273 OA
ATOM     19  N   THR A   9      18.772 -24.438 -25.926  0.00  0.00    -0.295 N 
ATOM     20  H   THR A   9      19.556 -25.004 -26.310  0.00  0.00    +0.150 HD
BRANCH  19  21
ATOM     21  CA  THR A   9      17.691 -24.072 -26.861  0.00  0.00    +0.176 C 
BRANCH  21  22
ATOM     22  C   THR A   9      16.660 -25.157 -26.879  0.00  0.00    +0.243 C 
ATOM     23  N   VAL A  10      15.405 -24.809 -26.639  0.00  0.00    -0.298 N 
ATOM     24  H   VAL A  10      15.207 -23.797 -26.503  0.00  0.00    +0.150 HD
ATOM     25  O   THR A   9      16.990 -26.339 -27.081  0.00  0.00    -0.273 OA
BRANCH  23  26
ATOM     26  CA  VAL A  10      14.296 -25.717 -26.552  0.00  0.00    +0.137 C 
BRANCH  26  27
ATOM     27  CB  VAL A  10      13.759 -25.867 -25.105  0.00  0.00    +0.026 C 
ATOM     28  CG2 VAL A  10      14.873 -25.865 -24.079  0.00  0.00    +0.002 C 
ATOM     29  CG1 VAL A  10      12.899 -27.124 -25.023  0.00  0.00    +0.002 C 
ENDBRANCH  26  27
BRANCH  26  30
ATOM     30  C   VAL A  10      13.165 -25.237 -27.467  0.00  0.00    +0.227 C 
ATOM     31  O   VAL A  10      12.743 -24.080 -27.311  0.00  0.00    -0.286 OA
ENDBRANCH  26  30
ENDBRANCH  23  26
ENDBRANCH  21  22
BRANCH  21  32
ATOM     32  CB  THR A   9      18.324 -23.854 -28.242  0.00  0.00    +0.137 C 
ATOM     33  CG2 THR A   9      17.266 -23.604 -29.301  0.00  0.00    +0.034 C 
BRANCH  32  34
ATOM     34  OG1 THR A   9      19.177 -22.708 -28.180  0.00  0.00    -0.382 OA
ATOM     35  HG1 THR A   9      19.885 -22.861 -27.505  0.00  0.00    +0.210 HD
ENDBRANCH  32  34
ENDBRANCH  21  32
ENDBRANCH  19  21
ENDBRANCH  16  17
BRANCH  16  36
ATOM     36  CB  ASP A   8      19.748 -26.152 -23.555  0.00  0.00    +0.143 C 
BRANCH  36  37
ATOM     37  CG  ASP A   8      20.863 -26.887 -22.819  0.00  0.00    +0.367 C 
ATOM     38  OD2 ASP A   8      20.571 -27.867 -22.108  0.00  0.00    -0.246 OA
ATOM     39  OD1 ASP A   8      22.047 -26.541 -22.939  0.00  0.00    -0.246 OA
ENDBRANCH  36  37
ENDBRANCH  16  36
ENDBRANCH  13  16
ENDBRANCH  11  12
BRANCH  11  40
ATOM     40  CB  ASP A   7      22.055 -24.023 -20.086  0.00  0.00    +0.143 C 
BRANCH  40  41
ATOM     41  CG  ASP A   7      22.300 -23.779 -18.630  0.00  0.00    +0.367 C 
ATOM     42  OD2 ASP A   7      22.341 -24.794 -17.871  0.00  0.00    -0.246 OA
ATOM     43  OD1 ASP A   7      22.494 -22.628 -18.163  0.00  0.00    -0.246 OA
ENDBRANCH  40  41
ENDBRANCH  11  40
ENDBRANCH   8  11
ENDBRANCH   5   7
ENDBRANCH   3   5
BRANCH   1  44
ATOM     44  CA  GLY A   5      18.491 -17.569 -18.487  0.00  0.00    +0.176 C 
BRANCH  44  46
ATOM     45  C   THR A   4      19.880 -16.423 -20.145  0.00  0.00    +0.243 C 
ATOM     46  N   GLY A   5      18.697 -16.697 -19.637  0.00  0.00    -0.295 N 
ATOM     47  H   GLY A   5      17.861 -16.267 -20.082  0.00  0.00    +0.150 HD
ATOM     48  O   THR A   4      20.952 -16.855 -19.692  0.00  0.00    -0.273 OA
BRANCH  45  49
ATOM     49  CA  THR A   4      19.906 -15.546 -21.385  0.00  0.00    +0.176 C 
BRANCH  49  51
ATOM     50  C   ASP A   3      18.078 -16.485 -22.670  0.00  0.00    +0.241 C 
ATOM     51  N   THR A   4      18.611 -15.446 -22.018  0.00  0.00    -0.295 N 
ATOM     52  H   THR A   4      18.084 -14.551 -21.966  0.00  0.00    +0.150 HD
ATOM     53  O   ASP A   3      18.634 -17.581 -22.699  0.00  0.00    -0.273 OA
BRANCH  50  54
ATOM     54  CA  ASP A   3      16.752 -16.226 -23.348  0.00  0.00    +0.160 C 
BRANCH  54  57
ATOM     55  C   LEU A   2      16.301 -14.891 -25.322  0.00  0.00    +0.241 C 
ATOM     56  O   LEU A   2      15.902 -13.927 -24.667  0.00  0.00    -0.273 OA
ATOM     57  N   ASP A   3      16.859 -15.955 -24.773  0.00  0.00    -0.297 N 
ATOM     58  H   ASP A   3      17.389 -16.617 -25.376  0.00  0.00    +0.150 HD
BRANCH  55  59
ATOM     59  CA  LEU A   2      16.165 -14.835 -26.830  0.00  0.00    +0.149 C 
BRANCH  59  62
ATOM     60  C   LEU A   1      14.071 -15.954 -27.080  0.00  0.00    +0.238 C 
ATOM     61  O   LEU A   1      14.590 -17.049 -26.827  0.00  0.00    -0.274 OA
ATOM     62  N   LEU A   2      14.752 -14.822 -27.179  0.00  0.00    -0.297 N 
ATOM     63  H   LEU A   2      14.289 -13.947 -27.498  0.00  0.00    +0.150 HD
BRANCH  60  64
ATOM     64  CA  LEU A   1      12.553 -15.860 -27.266  0.00  0.00    +0.145 C 
BRANCH  64  65
ATOM     65  N   LEU A   1      12.068 -16.820 -28.245  0.00  0.00    -0.238 NA
ATOM     66  H   LEU A   1      11.868 -17.790 -27.927  0.00  0.00    +0.142 HD
ENDBRANCH  64  65
BRANCH  64  67
ATOM     67  CB  LEU A   1      11.692 -16.220 -26.059  0.00  0.00    +0.026 C 
BRANCH  67  68
ATOM     68  CG  LEU A   1      11.758 -15.493 -24.757  0.00  0.00    +0.002 C 
ATOM     69  CD2 LEU A   1      11.049 -16.292 -23.655  0.00  0.00    +0.000 C 
ATOM     70  CD1 LEU A   1      11.149 -14.106 -24.889  0.00  0.00    +0.000 C 
ENDBRANCH  67  68
ENDBRANCH  64  67
ENDBRANCH  60  64
ENDBRANCH  59  62
BRANCH  59  71
ATOM     71  CB  LEU A   2      16.837 -13.584 -27.382  0.00  0.00    +0.029 C 
BRANCH  71  72
ATOM     72  CG  LEU A   2      16.705 -13.432 -28.905  0.00  0.00    +0.002 C 
ATOM     73  CD2 LEU A   2      17.453 -12.162 -29.341  0.00  0.00    +0.000 C 
ATOM     74  CD1 LEU A   2      17.202 -14.662 -29.604  0.00  0.00    +0.000 C 
ENDBRANCH  71  72
ENDBRANCH  59  71
ENDBRANCH  55  59
ENDBRANCH  54  57
BRANCH  54  75
ATOM     75  CB  ASP A   3      15.853 -17.464 -23.175  0.00  0.00    +0.143 C 
BRANCH  75  76
ATOM     76  CG  ASP A   3      15.446 -17.703 -21.738  0.00  0.00    +0.367 C 
ATOM     77  OD2 ASP A   3      16.010 -17.000 -20.863  0.00  0.00    -0.246 OA
ATOM     78  OD1 ASP A   3      14.550 -18.574 -21.570  0.00  0.00    -0.246 OA
ENDBRANCH  75  76
ENDBRANCH  54  75
ENDBRANCH  50  54
ENDBRANCH  49  51
BRANCH  49  79
ATOM     79  CB  THR A   4      20.473 -14.176 -20.982  0.00  0.00    +0.137 C 
ATOM     80  CG2 THR A   4      20.714 -13.330 -22.245  0.00  0.00    +0.034 C 
BRANCH  79  81
ATOM     81  OG1 THR A   4      19.557 -13.483 -20.135  0.00  0.00    -0.382 OA
ATOM     82  HG1 THR A   4      19.396 -14.017 -19.317  0.00  0.00    +0.210 HD
ENDBRANCH  79  81
ENDBRANCH  49  79
ENDBRANCH  45  49
ENDBRANCH  44  46
ENDBRANCH   1  44
TORSDOF 35
REMARK  Name = ../refined-set-2016/4hdf/4hdf_pocket.pdb
REMARK  220 active torsions:
REMARK  status: ('A' for Active; 'I' for Inactive)
REMARK    1  A    between atoms: _1  and  _3
REMARK    2  A    between atoms: _3  and  _4
REMARK    3  A    between atoms: _3  and  _6
REMARK    4  A    between atoms: _6  and  _7
REMARK    5  A    between atoms: _7  and  _8
REMARK    6  A    between atoms: _8  and  _9
REMARK    7  A    between atoms: _18  and  _20
REMARK    8  A    between atoms: _20  and  _21
REMARK    9  A    between atoms: _20  and  _23
REMARK   10  A    between atoms: _23  and  _24
REMARK   11  A    between atoms: _27  and  _29
REMARK   12  A    between atoms: _29  and  _30
REMARK   13  A    between atoms: _29  and  _32
REMARK   14  A    between atoms: _32  and  _33
REMARK   15  A    between atoms: _36  and  _38
REMARK   16  A    between atoms: _38  and  _39
REMARK   17  A    between atoms: _38  and  _41
REMARK   18  A    between atoms: _41  and  _42
REMARK   19  A    between atoms: _45  and  _47
REMARK   20  A    between atoms: _47  and  _48
REMARK   21  A    between atoms: _47  and  _50
REMARK   22  A    between atoms: _50  and  _51
REMARK   23  A    between atoms: _54  and  _56
REMARK   24  A    between atoms: _56  and  _57
REMARK   25  A    between atoms: _59  and  _61
REMARK   26  A    between atoms: _61  and  _62
REMARK   27  A    between atoms: _65  and  _67
REMARK   28  A    between atoms: _67  and  _68
REMARK   29  A    between atoms: _67  and  _70
REMARK   30  A    between atoms: _70  and  _71
REMARK   31  A    between atoms: _74  and  _76
REMARK   32  A    between atoms: _76  and  _77
REMARK   33  A    between atoms: _76  and  _79
REMARK   34  A    between atoms: _79  and  _80
REMARK   35  A    between atoms: _83  and  _85
REMARK   36  A    between atoms: _85  and  _86
REMARK   37  A    between atoms: _85  and  _88
REMARK   38  A    between atoms: _88  and  _89
REMARK   39  A    between atoms: _92  and  _94
REMARK   40  A    between atoms: _94  and  _95
REMARK   41  A    between atoms: _94  and  _97
REMARK   42  A    between atoms: _100  and  _102
REMARK   43  A    between atoms: _102  and  _103
REMARK   44  A    between atoms: _102  and  _105
REMARK   45  A    between atoms: _105  and  _106
REMARK   46  A    between atoms: _106  and  _107
REMARK   47  A    between atoms: _107  and  _108
REMARK   48  A    between atoms: _108  and  _109
REMARK   49  A    between atoms: _113  and  _115
REMARK   50  A    between atoms: _115  and  _116
REMARK   51  A    between atoms: _115  and  _118
REMARK   52  A    between atoms: _118  and  _119
REMARK   53  A    between atoms: _119  and  _120
REMARK   54  A    between atoms: _122  and  _124
REMARK   55  A    between atoms: _124  and  _125
REMARK   56  A    between atoms: _124  and  _127
REMARK   57  A    between atoms: _127  and  _128
REMARK   58  A    between atoms: _131  and  _133
REMARK   59  A    between atoms: _133  and  _134
REMARK   60  A    between atoms: _136  and  _138
REMARK   61  A    between atoms: _138  and  _139
REMARK   62  A    between atoms: _141  and  _143
REMARK   63  A    between atoms: _143  and  _144
REMARK   64  A    between atoms: _143  and  _146
REMARK   65  A    between atoms: _146  and  _147
REMARK   66  A    between atoms: _150  and  _152
REMARK   67  A    between atoms: _152  and  _153
REMARK   68  A    between atoms: _155  and  _157
REMARK   69  A    between atoms: _157  and  _158
REMARK   70  A    between atoms: _160  and  _162
REMARK   71  A    between atoms: _162  and  _163
REMARK   72  A    between atoms: _162  and  _165
REMARK   73  A    between atoms: _165  and  _166
REMARK   74  A    between atoms: _172  and  _174
REMARK   75  A    between atoms: _174  and  _175
REMARK   76  A    between atoms: _174  and  _177
REMARK   77  A    between atoms: _177  and  _178
REMARK   78  A    between atoms: _181  and  _183
REMARK   79  A    between atoms: _183  and  _184
REMARK   80  A    between atoms: _183  and  _186
REMARK   81  A    between atoms: _186  and  _187
REMARK   82  A    between atoms: _190  and  _192
REMARK   83  A    between atoms: _192  and  _193
REMARK   84  A    between atoms: _192  and  _195
REMARK   85  A    between atoms: _195  and  _196
REMARK   86  A    between atoms: _200  and  _201
REMARK   87  A    between atoms: _206  and  _208
REMARK   88  A    between atoms: _208  and  _209
REMARK   89  A    between atoms: _212  and  _214
REMARK   90  A    between atoms: _214  and  _215
REMARK   91  A    between atoms: _214  and  _217
REMARK   92  A    between atoms: _217  and  _218
REMARK   93  A    between atoms: _223  and  _225
REMARK   94  A    between atoms: _225  and  _226
REMARK   95  A    between atoms: _225  and  _228
REMARK   96  A    between atoms: _228  and  _229
REMARK   97  A    between atoms: _232  and  _234
REMARK   98  A    between atoms: _234  and  _235
REMARK   99  A    between atoms: _237  and  _239
REMARK  100  A    between atoms: _239  and  _240
REMARK  101  A    between atoms: _239  and  _242
REMARK  102  A    between atoms: _242  and  _243
REMARK  103  A    between atoms: _243  and  _244
REMARK  104  A    between atoms: _244  and  _245
REMARK  105  A    between atoms: _254  and  _256
REMARK  106  A    between atoms: _256  and  _257
REMARK  107  A    between atoms: _256  and  _259
REMARK  108  A    between atoms: _259  and  _260
REMARK  109  A    between atoms: _265  and  _267
REMARK  110  A    between atoms: _267  and  _268
REMARK  111  A    between atoms: _267  and  _270
REMARK  112  A    between atoms: _270  and  _271
REMARK  113  A    between atoms: _271  and  _272
REMARK  114  A    between atoms: _272  and  _273
REMARK  115  A    between atoms: _282  and  _284
REMARK  116  A    between atoms: _284  and  _285
REMARK  117  A    between atoms: _284  and  _287
REMARK  118  A    between atoms: _287  and  _288
REMARK  119  A    between atoms: _291  and  _293
REMARK  120  A    between atoms: _293  and  _294
REMARK  121  A    between atoms: _293  and  _296
REMARK  122  A    between atoms: _296  and  _297
REMARK  123  A    between atoms: _300  and  _302
REMARK  124  A    between atoms: _302  and  _303
REMARK  125  A    between atoms: _302  and  _305
REMARK  126  A    between atoms: _305  and  _306
REMARK  127  A    between atoms: _309  and  _311
REMARK  128  A    between atoms: _311  and  _312
REMARK  129  A    between atoms: _311  and  _314
REMARK  130  A    between atoms: _314  and  _315
REMARK  131  A    between atoms: _318  and  _320
REMARK  132  A    between atoms: _320  and  _321
REMARK  133  A    between atoms: _323  and  _325
REMARK  134  A    between atoms: _325  and  _326
REMARK  135  A    between atoms: _329  and  _331
REMARK  136  A    between atoms: _331  and  _332
REMARK  137  A    between atoms: _331  and  _334
REMARK  138  A    between atoms: _334  and  _335
REMARK  139  A    between atoms: _338  and  _340
REMARK  140  A    between atoms: _340  and  _341
REMARK  141  A    between atoms: _340  and  _343
REMARK  142  A    between atoms: _343  and  _344
REMARK  143  A    between atoms: _347  and  _349
REMARK  144  A    between atoms: _349  and  _350
REMARK  145  A    between atoms: _349  and  _352
REMARK  146  A    between atoms: _352  and  _353
REMARK  147  A    between atoms: _356  and  _358
REMARK  148  A    between atoms: _358  and  _359
REMARK  149  A    between atoms: _358  and  _361
REMARK  150  A    between atoms: _364  and  _366
REMARK  151  A    between atoms: _366  and  _367
REMARK  152  A    between atoms: _366  and  _369
REMARK  153  A    between atoms: _369  and  _370
REMARK  154  A    between atoms: _370  and  _371
REMARK  155  A    between atoms: _371  and  _372
REMARK  156  A    between atoms: _372  and  _373
REMARK  157  A    between atoms: _377  and  _379
REMARK  158  A    between atoms: _379  and  _380
REMARK  159  A    between atoms: _379  and  _382
REMARK  160  A    between atoms: _382  and  _383
REMARK  161  A    between atoms: _383  and  _384
REMARK  162  A    between atoms: _386  and  _388
REMARK  163  A    between atoms: _388  and  _389
REMARK  164  A    between atoms: _388  and  _391
REMARK  165  A    between atoms: _391  and  _392
REMARK  166  A    between atoms: _395  and  _397
REMARK  167  A    between atoms: _397  and  _398
REMARK  168  A    between atoms: _400  and  _402
REMARK  169  A    between atoms: _402  and  _403
REMARK  170  A    between atoms: _405  and  _407
REMARK  171  A    between atoms: _407  and  _408
REMARK  172  A    between atoms: _407  and  _410
REMARK  173  A    between atoms: _410  and  _411
REMARK  174  A    between atoms: _414  and  _416
REMARK  175  A    between atoms: _416  and  _417
REMARK  176  A    between atoms: _419  and  _421
REMARK  177  A    between atoms: _421  and  _422
REMARK  178  A    between atoms: _424  and  _426
REMARK  179  A    between atoms: _426  and  _427
REMARK  180  A    between atoms: _426  and  _429
REMARK  181  A    between atoms: _429  and  _430
REMARK  182  A    between atoms: _433  and  _435
REMARK  183  A    between atoms: _435  and  _436
REMARK  184  A    between atoms: _435  and  _438
REMARK  185  A    between atoms: _441  and  _443
REMARK  186  A    between atoms: _443  and  _444
REMARK  187  A    between atoms: _443  and  _446
REMARK  188  A    between atoms: _446  and  _447
REMARK  189  A    between atoms: _451  and  _452
REMARK  190  A    between atoms: _457  and  _459
REMARK  191  A    between atoms: _459  and  _460
REMARK  192  A    between atoms: _459  and  _462
REMARK  193  A    between atoms: _462  and  _463
REMARK  194  A    between atoms: _467  and  _468
REMARK  195  A    between atoms: _473  and  _475
REMARK  196  A    between atoms: _475  and  _476
REMARK  197  A    between atoms: _479  and  _481
REMARK  198  A    between atoms: _481  and  _482
REMARK  199  A    between atoms: _481  and  _484
REMARK  200  A    between atoms: _484  and  _485
REMARK  201  A    between atoms: _490  and  _492
REMARK  202  A    between atoms: _492  and  _493
REMARK  203  A    between atoms: _492  and  _495
REMARK  204  A    between atoms: _495  and  _496
REMARK  205  A    between atoms: _499  and  _501
REMARK  206  A    between atoms: _501  and  _502
REMARK  207  A    between atoms: _501  and  _504
REMARK  208  A    between atoms: _504  and  _505
REMARK  209  A    between atoms: _508  and  _510
REMARK  210  A    between atoms: _510  and  _511
REMARK  211  A    between atoms: _513  and  _515
REMARK  212  A    between atoms: _515  and  _516
REMARK  213  A    between atoms: _515  and  _518
REMARK  214  A    between atoms: _518  and  _519
REMARK  215  A    between atoms: _519  and  _520
REMARK  216  A    between atoms: _520  and  _521
REMARK  217  A    between atoms: _530  and  _532
REMARK  218  A    between atoms: _532  and  _533
REMARK  219  A    between atoms: _532  and  _535
REMARK  220  A    between atoms: _535  and  _536
REMARK                            x       y       z     vdW  Elec       q    Type
REMARK                         _______ _______ _______ _____ _____    ______ ____
ROOT
ATOM      1  C   ILE A   3      14.771 -29.747 -17.441  0.00  0.00    +0.241 C 
ATOM      2  N   GLY A   4      15.211 -28.803 -16.596  0.00  0.00    -0.295 N 
ATOM      3  H   GLY A   4      16.157 -28.395 -16.740  0.00  0.00    +0.150 HD
ATOM      4  O   ILE A   3      13.588 -30.099 -17.424  0.00  0.00    -0.273 OA
ENDROOT
BRANCH   2   5
ATOM      5  CA  GLY A   4      14.407 -28.340 -15.493  0.00  0.00    +0.176 C 
BRANCH   5   6
ATOM      6  C   GLY A   4      14.222 -26.843 -15.410  0.00  0.00    +0.243 C 
ATOM      7  N   GLY A   5      13.023 -26.412 -15.046  0.00  0.00    -0.295 N 
ATOM      8  H   GLY A   5      12.257 -27.097 -14.887  0.00  0.00    +0.150 HD
ATOM      9  O   GLY A   4      15.168 -26.084 -15.642  0.00  0.00    -0.273 OA
BRANCH   7  10
ATOM     10  CA  GLY A   5      12.768 -24.998 -14.867  0.00  0.00    +0.176 C 
BRANCH  10  11
ATOM     11  C   GLY A   5      11.842 -24.708 -13.699  0.00  0.00    +0.243 C 
ATOM     12  O   GLY A   5      11.736 -25.531 -12.806  0.00  0.00    -0.273 OA
ATOM     13  N   ILE A   6      11.195 -23.545 -13.714  0.00  0.00    -0.297 N 
ATOM     14  H   ILE A   6      11.455 -22.838 -14.431  0.00  0.00    +0.150 HD
BRANCH  13  15
ATOM     15  CA  ILE A   6      10.138 -23.223 -12.766  0.00  0.00    +0.149 C 
BRANCH  15  16
ATOM     16  C   ILE A   6       9.044 -24.241 -13.027  0.00  0.00    +0.241 C 
ATOM     17  N   GLY A   7       8.532 -24.888 -12.007  0.00  0.00    -0.295 N 
ATOM     18  H   GLY A   7       8.889 -24.679 -11.053  0.00  0.00    +0.150 HD
ATOM     19  O   ILE A   6       8.714 -24.450 -14.195  0.00  0.00    -0.273 OA
BRANCH  17  20
ATOM     20  CA  GLY A   7       7.487 -25.884 -12.158  0.00  0.00    +0.176 C 
BRANCH  20  21
ATOM     21  C   GLY A   7       7.932 -27.313 -12.353  0.00  0.00    +0.243 C 
ATOM     22  O   GLY A   7       7.075 -28.215 -12.361  0.00  0.00    -0.273 OA
ATOM     23  N   GLY A   8       9.222 -27.606 -12.525  0.00  0.00    -0.296 N 
ATOM     24  H   GLY A   8       9.944 -26.858 -12.556  0.00  0.00    +0.150 HD
BRANCH  23  25
ATOM     25  CA  GLY A   8       9.588 -29.018 -12.669  0.00  0.00    +0.163 C 
BRANCH  25  26
ATOM     26  C   GLY A   8      10.395 -29.285 -13.928  0.00  0.00    +0.229 C 
ATOM     27  O   GLY A   8      10.768 -28.361 -14.632  0.00  0.00    -0.286 OA
ENDBRANCH  25  26
ENDBRANCH  23  25
ENDBRANCH  20  21
ENDBRANCH  17  20
ENDBRANCH  15  16
BRANCH  15  28
ATOM     28  CB  ILE A   6       9.659 -21.772 -12.885  0.00  0.00    +0.027 C 
ATOM     29  CG2 ILE A   6       8.197 -21.572 -12.494  0.00  0.00    +0.002 C 
BRANCH  28  30
ATOM     30  CG1 ILE A   6      10.559 -20.831 -12.056  0.00  0.00    +0.002 C 
ATOM     31  CD1 ILE A   6      10.397 -19.366 -12.419  0.00  0.00    +0.000 C 
ENDBRANCH  28  30
ENDBRANCH  15  28
ENDBRANCH  13  15
ENDBRANCH  10  11
ENDBRANCH   7  10
ENDBRANCH   5   6
ENDBRANCH   2   5
BRANCH   1  32
ATOM     32  CA  ILE A   3      15.733 -30.293 -18.466  0.00  0.00    +0.149 C 
BRANCH  32  35
ATOM     33  C   MET A   2      16.224 -32.651 -18.619  0.00  0.00    +0.241 C 
ATOM     34  O   MET A   2      17.387 -32.529 -18.266  0.00  0.00    -0.273 OA
ATOM     35  N   ILE A   3      15.333 -31.662 -18.756  0.00  0.00    -0.297 N 
ATOM     36  H   ILE A   3      14.363 -31.870 -19.067  0.00  0.00    +0.150 HD
BRANCH  33  37
ATOM     37  CA  MET A   2      15.706 -34.036 -19.009  0.00  0.00    +0.149 C 
BRANCH  37  39
ATOM     38  C   LYS A   1      16.491 -34.832 -21.154  0.00  0.00    +0.238 C 
ATOM     39  N   MET A   2      16.748 -34.567 -19.886  0.00  0.00    -0.297 N 
ATOM     40  H   MET A   2      17.701 -34.738 -19.508  0.00  0.00    +0.150 HD
ATOM     41  O   LYS A   1      15.345 -34.753 -21.605  0.00  0.00    -0.274 OA
BRANCH  38  42
ATOM     42  CA  LYS A   1      17.676 -35.217 -22.037  0.00  0.00    +0.145 C 
BRANCH  42  43
ATOM     43  N   LYS A   1      17.258 -36.188 -23.021  0.00  0.00    -0.238 NA
ATOM     44  H   LYS A   1      16.288 -36.147 -23.394  0.00  0.00    +0.142 HD
ENDBRANCH  42  43
BRANCH  42  45
ATOM     45  CB  LYS A   1      18.246 -33.980 -22.723  0.00  0.00    +0.026 C 
BRANCH  45  46
ATOM     46  CG  LYS A   1      18.928 -33.022 -21.754  0.00  0.00    -0.000 C 
BRANCH  46  47
ATOM     47  CD  LYS A   1      19.789 -32.009 -22.469  0.00  0.00    -0.024 C 
BRANCH  47  48
ATOM     48  CE  LYS A   1      20.394 -31.093 -21.420  0.00  0.00    -0.086 C 
BRANCH  48  49
ATOM     49  NZ  LYS A   1      21.491 -31.781 -20.692  0.00  0.00    +0.380 N 
ATOM     50  HZ1 LYS A   1      21.890 -31.137 -19.980  0.00  0.00    -0.089 HD
ATOM     51  HZ2 LYS A   1      21.115 -32.629 -20.222  0.00  0.00    -0.089 HD
ATOM     52  HZ3 LYS A   1      22.233 -32.057 -21.366  0.00  0.00    -0.089 HD
ENDBRANCH  48  49
ENDBRANCH  47  48
ENDBRANCH  46  47
ENDBRANCH  45  46
ENDBRANCH  42  45
ENDBRANCH  38  42
ENDBRANCH  37  39
BRANCH  37  53
ATOM     53  CB  MET A   2      15.432 -34.906 -17.793  0.00  0.00    +0.041 C 
BRANCH  53  54
ATOM     54  CG  MET A   2      14.133 -34.443 -17.091  0.00  0.00    +0.060 C 
BRANCH  54  55
ATOM     55  SD  MET A   2      13.569 -35.634 -15.889  0.00  0.00    -0.139 S 
ATOM     56  CE  MET A   2      13.721 -37.226 -16.671  0.00  0.00    +0.069 C 
ENDBRANCH  54  55
ENDBRANCH  53  54
ENDBRANCH  37  53
ENDBRANCH  33  37
ENDBRANCH  32  35
BRANCH  32  57
ATOM     57  CB  ILE A   3      15.784 -29.423 -19.717  0.00  0.00    +0.027 C 
ATOM     58  CG2 ILE A   3      16.932 -29.872 -20.602  0.00  0.00    +0.002 C 
BRANCH  57  59
ATOM     59  CG1 ILE A   3      14.462 -29.340 -20.479  0.00  0.00    +0.002 C 
ATOM     60  CD1 ILE A   3      14.497 -28.189 -21.488  0.00  0.00    +0.000 C 
ENDBRANCH  57  59
ENDBRANCH  32  57
ENDBRANCH   1  32
TORSDOF 28
REMARK  Name = ../refined-set-2016/4hdf/4hdf_pocket.pdb
REMARK  220 active torsions:
REMARK  status: ('A' for Active; 'I' for Inactive)
REMARK    1  A    between atoms: _1  and  _3
REMARK    2  A    between atoms: _3  and  _4
REMARK    3  A    between atoms: _3  and  _6
REMARK    4  A    between atoms: _6  and  _7
REMARK    5  A    between atoms: _7  and  _8
REMARK    6  A    between atoms: _8  and  _9
REMARK    7  A    between atoms: _18  and  _20
REMARK    8  A    between atoms: _20  and  _21
REMARK    9  A    between atoms: _20  and  _23
REMARK   10  A    between atoms: _23  and  _24
REMARK   11  A    between atoms: _27  and  _29
REMARK   12  A    between atoms: _29  and  _30
REMARK   13  A    between atoms: _29  and  _32
REMARK   14  A    between atoms: _32  and  _33
REMARK   15  A    between atoms: _36  and  _38
REMARK   16  A    between atoms: _38  and  _39
REMARK   17  A    between atoms: _38  and  _41
REMARK   18  A    between atoms: _41  and  _42
REMARK   19  A    between atoms: _45  and  _47
REMARK   20  A    between atoms: _47  and  _48
REMARK   21  A    between atoms: _47  and  _50
REMARK   22  A    between atoms: _50  and  _51
REMARK   23  A    between atoms: _54  and  _56
REMARK   24  A    between atoms: _56  and  _57
REMARK   25  A    between atoms: _59  and  _61
REMARK   26  A    between atoms: _61  and  _62
REMARK   27  A    between atoms: _65  and  _67
REMARK   28  A    between atoms: _67  and  _68
REMARK   29  A    between atoms: _67  and  _70
REMARK   30  A    between atoms: _70  and  _71
REMARK   31  A    between atoms: _74  and  _76
REMARK   32  A    between atoms: _76  and  _77
REMARK   33  A    between atoms: _76  and  _79
REMARK   34  A    between atoms: _79  and  _80
REMARK   35  A    between atoms: _83  and  _85
REMARK   36  A    between atoms: _85  and  _86
REMARK   37  A    between atoms: _85  and  _88
REMARK   38  A    between atoms: _88  and  _89
REMARK   39  A    between atoms: _92  and  _94
REMARK   40  A    between atoms: _94  and  _95
REMARK   41  A    between atoms: _94  and  _97
REMARK   42  A    between atoms: _100  and  _102
REMARK   43  A    between atoms: _102  and  _103
REMARK   44  A    between atoms: _102  and  _105
REMARK   45  A    between atoms: _105  and  _106
REMARK   46  A    between atoms: _106  and  _107
REMARK   47  A    between atoms: _107  and  _108
REMARK   48  A    between atoms: _108  and  _109
REMARK   49  A    between atoms: _113  and  _115
REMARK   50  A    between atoms: _115  and  _116
REMARK   51  A    between atoms: _115  and  _118
REMARK   52  A    between atoms: _118  and  _119
REMARK   53  A    between atoms: _119  and  _120
REMARK   54  A    between atoms: _122  and  _124
REMARK   55  A    between atoms: _124  and  _125
REMARK   56  A    between atoms: _124  and  _127
REMARK   57  A    between atoms: _127  and  _128
REMARK   58  A    between atoms: _131  and  _133
REMARK   59  A    between atoms: _133  and  _134
REMARK   60  A    between atoms: _136  and  _138
REMARK   61  A    between atoms: _138  and  _139
REMARK   62  A    between atoms: _141  and  _143
REMARK   63  A    between atoms: _143  and  _144
REMARK   64  A    between atoms: _143  and  _146
REMARK   65  A    between atoms: _146  and  _147
REMARK   66  A    between atoms: _150  and  _152
REMARK   67  A    between atoms: _152  and  _153
REMARK   68  A    between atoms: _155  and  _157
REMARK   69  A    between atoms: _157  and  _158
REMARK   70  A    between atoms: _160  and  _162
REMARK   71  A    between atoms: _162  and  _163
REMARK   72  A    between atoms: _162  and  _165
REMARK   73  A    between atoms: _165  and  _166
REMARK   74  A    between atoms: _172  and  _174
REMARK   75  A    between atoms: _174  and  _175
REMARK   76  A    between atoms: _174  and  _177
REMARK   77  A    between atoms: _177  and  _178
REMARK   78  A    between atoms: _181  and  _183
REMARK   79  A    between atoms: _183  and  _184
REMARK   80  A    between atoms: _183  and  _186
REMARK   81  A    between atoms: _186  and  _187
REMARK   82  A    between atoms: _190  and  _192
REMARK   83  A    between atoms: _192  and  _193
REMARK   84  A    between atoms: _192  and  _195
REMARK   85  A    between atoms: _195  and  _196
REMARK   86  A    between atoms: _200  and  _201
REMARK   87  A    between atoms: _206  and  _208
REMARK   88  A    between atoms: _208  and  _209
REMARK   89  A    between atoms: _212  and  _214
REMARK   90  A    between atoms: _214  and  _215
REMARK   91  A    between atoms: _214  and  _217
REMARK   92  A    between atoms: _217  and  _218
REMARK   93  A    between atoms: _223  and  _225
REMARK   94  A    between atoms: _225  and  _226
REMARK   95  A    between atoms: _225  and  _228
REMARK   96  A    between atoms: _228  and  _229
REMARK   97  A    between atoms: _232  and  _234
REMARK   98  A    between atoms: _234  and  _235
REMARK   99  A    between atoms: _237  and  _239
REMARK  100  A    between atoms: _239  and  _240
REMARK  101  A    between atoms: _239  and  _242
REMARK  102  A    between atoms: _242  and  _243
REMARK  103  A    between atoms: _243  and  _244
REMARK  104  A    between atoms: _244  and  _245
REMARK  105  A    between atoms: _254  and  _256
REMARK  106  A    between atoms: _256  and  _257
REMARK  107  A    between atoms: _256  and  _259
REMARK  108  A    between atoms: _259  and  _260
REMARK  109  A    between atoms: _265  and  _267
REMARK  110  A    between atoms: _267  and  _268
REMARK  111  A    between atoms: _267  and  _270
REMARK  112  A    between atoms: _270  and  _271
REMARK  113  A    between atoms: _271  and  _272
REMARK  114  A    between atoms: _272  and  _273
REMARK  115  A    between atoms: _282  and  _284
REMARK  116  A    between atoms: _284  and  _285
REMARK  117  A    between atoms: _284  and  _287
REMARK  118  A    between atoms: _287  and  _288
REMARK  119  A    between atoms: _291  and  _293
REMARK  120  A    between atoms: _293  and  _294
REMARK  121  A    between atoms: _293  and  _296
REMARK  122  A    between atoms: _296  and  _297
REMARK  123  A    between atoms: _300  and  _302
REMARK  124  A    between atoms: _302  and  _303
REMARK  125  A    between atoms: _302  and  _305
REMARK  126  A    between atoms: _305  and  _306
REMARK  127  A    between atoms: _309  and  _311
REMARK  128  A    between atoms: _311  and  _312
REMARK  129  A    between atoms: _311  and  _314
REMARK  130  A    between atoms: _314  and  _315
REMARK  131  A    between atoms: _318  and  _320
REMARK  132  A    between atoms: _320  and  _321
REMARK  133  A    between atoms: _323  and  _325
REMARK  134  A    between atoms: _325  and  _326
REMARK  135  A    between atoms: _329  and  _331
REMARK  136  A    between atoms: _331  and  _332
REMARK  137  A    between atoms: _331  and  _334
REMARK  138  A    between atoms: _334  and  _335
REMARK  139  A    between atoms: _338  and  _340
REMARK  140  A    between atoms: _340  and  _341
REMARK  141  A    between atoms: _340  and  _343
REMARK  142  A    between atoms: _343  and  _344
REMARK  143  A    between atoms: _347  and  _349
REMARK  144  A    between atoms: _349  and  _350
REMARK  145  A    between atoms: _349  and  _352
REMARK  146  A    between atoms: _352  and  _353
REMARK  147  A    between atoms: _356  and  _358
REMARK  148  A    between atoms: _358  and  _359
REMARK  149  A    between atoms: _358  and  _361
REMARK  150  A    between atoms: _364  and  _366
REMARK  151  A    between atoms: _366  and  _367
REMARK  152  A    between atoms: _366  and  _369
REMARK  153  A    between atoms: _369  and  _370
REMARK  154  A    between atoms: _370  and  _371
REMARK  155  A    between atoms: _371  and  _372
REMARK  156  A    between atoms: _372  and  _373
REMARK  157  A    between atoms: _377  and  _379
REMARK  158  A    between atoms: _379  and  _380
REMARK  159  A    between atoms: _379  and  _382
REMARK  160  A    between atoms: _382  and  _383
REMARK  161  A    between atoms: _383  and  _384
REMARK  162  A    between atoms: _386  and  _388
REMARK  163  A    between atoms: _388  and  _389
REMARK  164  A    between atoms: _388  and  _391
REMARK  165  A    between atoms: _391  and  _392
REMARK  166  A    between atoms: _395  and  _397
REMARK  167  A    between atoms: _397  and  _398
REMARK  168  A    between atoms: _400  and  _402
REMARK  169  A    between atoms: _402  and  _403
REMARK  170  A    between atoms: _405  and  _407
REMARK  171  A    between atoms: _407  and  _408
REMARK  172  A    between atoms: _407  and  _410
REMARK  173  A    between atoms: _410  and  _411
REMARK  174  A    between atoms: _414  and  _416
REMARK  175  A    between atoms: _416  and  _417
REMARK  176  A    between atoms: _419  and  _421
REMARK  177  A    between atoms: _421  and  _422
REMARK  178  A    between atoms: _424  and  _426
REMARK  179  A    between atoms: _426  and  _427
REMARK  180  A    between atoms: _426  and  _429
REMARK  181  A    between atoms: _429  and  _430
REMARK  182  A    between atoms: _433  and  _435
REMARK  183  A    between atoms: _435  and  _436
REMARK  184  A    between atoms: _435  and  _438
REMARK  185  A    between atoms: _441  and  _443
REMARK  186  A    between atoms: _443  and  _444
REMARK  187  A    between atoms: _443  and  _446
REMARK  188  A    between atoms: _446  and  _447
REMARK  189  A    between atoms: _451  and  _452
REMARK  190  A    between atoms: _457  and  _459
REMARK  191  A    between atoms: _459  and  _460
REMARK  192  A    between atoms: _459  and  _462
REMARK  193  A    between atoms: _462  and  _463
REMARK  194  A    between atoms: _467  and  _468
REMARK  195  A    between atoms: _473  and  _475
REMARK  196  A    between atoms: _475  and  _476
REMARK  197  A    between atoms: _479  and  _481
REMARK  198  A    between atoms: _481  and  _482
REMARK  199  A    between atoms: _481  and  _484
REMARK  200  A    between atoms: _484  and  _485
REMARK  201  A    between atoms: _490  and  _492
REMARK  202  A    between atoms: _492  and  _493
REMARK  203  A    between atoms: _492  and  _495
REMARK  204  A    between atoms: _495  and  _496
REMARK  205  A    between atoms: _499  and  _501
REMARK  206  A    between atoms: _501  and  _502
REMARK  207  A    between atoms: _501  and  _504
REMARK  208  A    between atoms: _504  and  _505
REMARK  209  A    between atoms: _508  and  _510
REMARK  210  A    between atoms: _510  and  _511
REMARK  211  A    between atoms: _513  and  _515
REMARK  212  A    between atoms: _515  and  _516
REMARK  213  A    between atoms: _515  and  _518
REMARK  214  A    between atoms: _518  and  _519
REMARK  215  A    between atoms: _519  and  _520
REMARK  216  A    between atoms: _520  and  _521
REMARK  217  A    between atoms: _530  and  _532
REMARK  218  A    between atoms: _532  and  _533
REMARK  219  A    between atoms: _532  and  _535
REMARK  220  A    between atoms: _535  and  _536
REMARK                            x       y       z     vdW  Elec       q    Type
REMARK                         _______ _______ _______ _____ _____    ______ ____
ROOT
ATOM      1  CA  ILE A   1      10.455 -32.157 -18.778  0.00  0.00    +0.133 C 
ENDROOT
BRANCH   1   2
ATOM      2  N   ILE A   1      11.066 -31.499 -17.641  0.00  0.00    -0.239 NA
ATOM      3  H   ILE A   1      11.970 -30.998 -17.761  0.00  0.00    +0.142 HD
ENDBRANCH   1   2
BRANCH   1   4
ATOM      4  C   ILE A   1      11.510 -32.981 -19.524  0.00  0.00    +0.224 C 
ATOM      5  O   ILE A   1      12.723 -32.773 -19.483  0.00  0.00    -0.287 OA
ENDBRANCH   1   4
BRANCH   1   6
ATOM      6  CB  ILE A   1       9.812 -31.167 -19.766  0.00  0.00    +0.023 C 
ATOM      7  CG2 ILE A   1       8.599 -30.458 -19.149  0.00  0.00    +0.002 C 
BRANCH   6   8
ATOM      8  CG1 ILE A   1      10.836 -30.171 -20.343  0.00  0.00    +0.002 C 
ATOM      9  CD1 ILE A   1      10.391 -29.411 -21.571  0.00  0.00    +0.000 C 
ENDBRANCH   6   8
ENDBRANCH   1   6
TORSDOF 4
REMARK  Name = ../refined-set-2016/4hdf/4hdf_pocket.pdb
REMARK  220 active torsions:
REMARK  status: ('A' for Active; 'I' for Inactive)
REMARK    1  A    between atoms: _1  and  _3
REMARK    2  A    between atoms: _3  and  _4
REMARK    3  A    between atoms: _3  and  _6
REMARK    4  A    between atoms: _6  and  _7
REMARK    5  A    between atoms: _7  and  _8
REMARK    6  A    between atoms: _8  and  _9
REMARK    7  A    between atoms: _18  and  _20
REMARK    8  A    between atoms: _20  and  _21
REMARK    9  A    between atoms: _20  and  _23
REMARK   10  A    between atoms: _23  and  _24
REMARK   11  A    between atoms: _27  and  _29
REMARK   12  A    between atoms: _29  and  _30
REMARK   13  A    between atoms: _29  and  _32
REMARK   14  A    between atoms: _32  and  _33
REMARK   15  A    between atoms: _36  and  _38
REMARK   16  A    between atoms: _38  and  _39
REMARK   17  A    between atoms: _38  and  _41
REMARK   18  A    between atoms: _41  and  _42
REMARK   19  A    between atoms: _45  and  _47
REMARK   20  A    between atoms: _47  and  _48
REMARK   21  A    between atoms: _47  and  _50
REMARK   22  A    between atoms: _50  and  _51
REMARK   23  A    between atoms: _54  and  _56
REMARK   24  A    between atoms: _56  and  _57
REMARK   25  A    between atoms: _59  and  _61
REMARK   26  A    between atoms: _61  and  _62
REMARK   27  A    between atoms: _65  and  _67
REMARK   28  A    between atoms: _67  and  _68
REMARK   29  A    between atoms: _67  and  _70
REMARK   30  A    between atoms: _70  and  _71
REMARK   31  A    between atoms: _74  and  _76
REMARK   32  A    between atoms: _76  and  _77
REMARK   33  A    between atoms: _76  and  _79
REMARK   34  A    between atoms: _79  and  _80
REMARK   35  A    between atoms: _83  and  _85
REMARK   36  A    between atoms: _85  and  _86
REMARK   37  A    between atoms: _85  and  _88
REMARK   38  A    between atoms: _88  and  _89
REMARK   39  A    between atoms: _92  and  _94
REMARK   40  A    between atoms: _94  and  _95
REMARK   41  A    between atoms: _94  and  _97
REMARK   42  A    between atoms: _100  and  _102
REMARK   43  A    between atoms: _102  and  _103
REMARK   44  A    between atoms: _102  and  _105
REMARK   45  A    between atoms: _105  and  _106
REMARK   46  A    between atoms: _106  and  _107
REMARK   47  A    between atoms: _107  and  _108
REMARK   48  A    between atoms: _108  and  _109
REMARK   49  A    between atoms: _113  and  _115
REMARK   50  A    between atoms: _115  and  _116
REMARK   51  A    between atoms: _115  and  _118
REMARK   52  A    between atoms: _118  and  _119
REMARK   53  A    between atoms: _119  and  _120
REMARK   54  A    between atoms: _122  and  _124
REMARK   55  A    between atoms: _124  and  _125
REMARK   56  A    between atoms: _124  and  _127
REMARK   57  A    between atoms: _127  and  _128
REMARK   58  A    between atoms: _131  and  _133
REMARK   59  A    between atoms: _133  and  _134
REMARK   60  A    between atoms: _136  and  _138
REMARK   61  A    between atoms: _138  and  _139
REMARK   62  A    between atoms: _141  and  _143
REMARK   63  A    between atoms: _143  and  _144
REMARK   64  A    between atoms: _143  and  _146
REMARK   65  A    between atoms: _146  and  _147
REMARK   66  A    between atoms: _150  and  _152
REMARK   67  A    between atoms: _152  and  _153
REMARK   68  A    between atoms: _155  and  _157
REMARK   69  A    between atoms: _157  and  _158
REMARK   70  A    between atoms: _160  and  _162
REMARK   71  A    between atoms: _162  and  _163
REMARK   72  A    between atoms: _162  and  _165
REMARK   73  A    between atoms: _165  and  _166
REMARK   74  A    between atoms: _172  and  _174
REMARK   75  A    between atoms: _174  and  _175
REMARK   76  A    between atoms: _174  and  _177
REMARK   77  A    between atoms: _177  and  _178
REMARK   78  A    between atoms: _181  and  _183
REMARK   79  A    between atoms: _183  and  _184
REMARK   80  A    between atoms: _183  and  _186
REMARK   81  A    between atoms: _186  and  _187
REMARK   82  A    between atoms: _190  and  _192
REMARK   83  A    between atoms: _192  and  _193
REMARK   84  A    between atoms: _192  and  _195
REMARK   85  A    between atoms: _195  and  _196
REMARK   86  A    between atoms: _200  and  _201
REMARK   87  A    between atoms: _206  and  _208
REMARK   88  A    between atoms: _208  and  _209
REMARK   89  A    between atoms: _212  and  _214
REMARK   90  A    between atoms: _214  and  _215
REMARK   91  A    between atoms: _214  and  _217
REMARK   92  A    between atoms: _217  and  _218
REMARK   93  A    between atoms: _223  and  _225
REMARK   94  A    between atoms: _225  and  _226
REMARK   95  A    between atoms: _225  and  _228
REMARK   96  A    between atoms: _228  and  _229
REMARK   97  A    between atoms: _232  and  _234
REMARK   98  A    between atoms: _234  and  _235
REMARK   99  A    between atoms: _237  and  _239
REMARK  100  A    between atoms: _239  and  _240
REMARK  101  A    between atoms: _239  and  _242
REMARK  102  A    between atoms: _242  and  _243
REMARK  103  A    between atoms: _243  and  _244
REMARK  104  A    between atoms: _244  and  _245
REMARK  105  A    between atoms: _254  and  _256
REMARK  106  A    between atoms: _256  and  _257
REMARK  107  A    between atoms: _256  and  _259
REMARK  108  A    between atoms: _259  and  _260
REMARK  109  A    between atoms: _265  and  _267
REMARK  110  A    between atoms: _267  and  _268
REMARK  111  A    between atoms: _267  and  _270
REMARK  112  A    between atoms: _270  and  _271
REMARK  113  A    between atoms: _271  and  _272
REMARK  114  A    between atoms: _272  and  _273
REMARK  115  A    between atoms: _282  and  _284
REMARK  116  A    between atoms: _284  and  _285
REMARK  117  A    between atoms: _284  and  _287
REMARK  118  A    between atoms: _287  and  _288
REMARK  119  A    between atoms: _291  and  _293
REMARK  120  A    between atoms: _293  and  _294
REMARK  121  A    between atoms: _293  and  _296
REMARK  122  A    between atoms: _296  and  _297
REMARK  123  A    between atoms: _300  and  _302
REMARK  124  A    between atoms: _302  and  _303
REMARK  125  A    between atoms: _302  and  _305
REMARK  126  A    between atoms: _305  and  _306
REMARK  127  A    between atoms: _309  and  _311
REMARK  128  A    between atoms: _311  and  _312
REMARK  129  A    between atoms: _311  and  _314
REMARK  130  A    between atoms: _314  and  _315
REMARK  131  A    between atoms: _318  and  _320
REMARK  132  A    between atoms: _320  and  _321
REMARK  133  A    between atoms: _323  and  _325
REMARK  134  A    between atoms: _325  and  _326
REMARK  135  A    between atoms: _329  and  _331
REMARK  136  A    between atoms: _331  and  _332
REMARK  137  A    between atoms: _331  and  _334
REMARK  138  A    between atoms: _334  and  _335
REMARK  139  A    between atoms: _338  and  _340
REMARK  140  A    between atoms: _340  and  _341
REMARK  141  A    between atoms: _340  and  _343
REMARK  142  A    between atoms: _343  and  _344
REMARK  143  A    between atoms: _347  and  _349
REMARK  144  A    between atoms: _349  and  _350
REMARK  145  A    between atoms: _349  and  _352
REMARK  146  A    between atoms: _352  and  _353
REMARK  147  A    between atoms: _356  and  _358
REMARK  148  A    between atoms: _358  and  _359
REMARK  149  A    between atoms: _358  and  _361
REMARK  150  A    between atoms: _364  and  _366
REMARK  151  A    between atoms: _366  and  _367
REMARK  152  A    between atoms: _366  and  _369
REMARK  153  A    between atoms: _369  and  _370
REMARK  154  A    between atoms: _370  and  _371
REMARK  155  A    between atoms: _371  and  _372
REMARK  156  A    between atoms: _372  and  _373
REMARK  157  A    between atoms: _377  and  _379
REMARK  158  A    between atoms: _379  and  _380
REMARK  159  A    between atoms: _379  and  _382
REMARK  160  A    between atoms: _382  and  _383
REMARK  161  A    between atoms: _383  and  _384
REMARK  162  A    between atoms: _386  and  _388
REMARK  163  A    between atoms: _388  and  _389
REMARK  164  A    between atoms: _388  and  _391
REMARK  165  A    between atoms: _391  and  _392
REMARK  166  A    between atoms: _395  and  _397
REMARK  167  A    between atoms: _397  and  _398
REMARK  168  A    between atoms: _400  and  _402
REMARK  169  A    between atoms: _402  and  _403
REMARK  170  A    between atoms: _405  and  _407
REMARK  171  A    between atoms: _407  and  _408
REMARK  172  A    between atoms: _407  and  _410
REMARK  173  A    between atoms: _410  and  _411
REMARK  174  A    between atoms: _414  and  _416
REMARK  175  A    between atoms: _416  and  _417
REMARK  176  A    between atoms: _419  and  _421
REMARK  177  A    between atoms: _421  and  _422
REMARK  178  A    between atoms: _424  and  _426
REMARK  179  A    between atoms: _426  and  _427
REMARK  180  A    between atoms: _426  and  _429
REMARK  181  A    between atoms: _429  and  _430
REMARK  182  A    between atoms: _433  and  _435
REMARK  183  A    between atoms: _435  and  _436
REMARK  184  A    between atoms: _435  and  _438
REMARK  185  A    between atoms: _441  and  _443
REMARK  186  A    between atoms: _443  and  _444
REMARK  187  A    between atoms: _443  and  _446
REMARK  188  A    between atoms: _446  and  _447
REMARK  189  A    between atoms: _451  and  _452
REMARK  190  A    between atoms: _457  and  _459
REMARK  191  A    between atoms: _459  and  _460
REMARK  192  A    between atoms: _459  and  _462
REMARK  193  A    between atoms: _462  and  _463
REMARK  194  A    between atoms: _467  and  _468
REMARK  195  A    between atoms: _473  and  _475
REMARK  196  A    between atoms: _475  and  _476
REMARK  197  A    between atoms: _479  and  _481
REMARK  198  A    between atoms: _481  and  _482
REMARK  199  A    between atoms: _481  and  _484
REMARK  200  A    between atoms: _484  and  _485
REMARK  201  A    between atoms: _490  and  _492
REMARK  202  A    between atoms: _492  and  _493
REMARK  203  A    between atoms: _492  and  _495
REMARK  204  A    between atoms: _495  and  _496
REMARK  205  A    between atoms: _499  and  _501
REMARK  206  A    between atoms: _501  and  _502
REMARK  207  A    between atoms: _501  and  _504
REMARK  208  A    between atoms: _504  and  _505
REMARK  209  A    between atoms: _508  and  _510
REMARK  210  A    between atoms: _510  and  _511
REMARK  211  A    between atoms: _513  and  _515
REMARK  212  A    between atoms: _515  and  _516
REMARK  213  A    between atoms: _515  and  _518
REMARK  214  A    between atoms: _518  and  _519
REMARK  215  A    between atoms: _519  and  _520
REMARK  216  A    between atoms: _520  and  _521
REMARK  217  A    between atoms: _530  and  _532
REMARK  218  A    between atoms: _532  and  _533
REMARK  219  A    between atoms: _532  and  _535
REMARK  220  A    between atoms: _535  and  _536
REMARK                            x       y       z     vdW  Elec       q    Type
REMARK                         _______ _______ _______ _____ _____    ______ ____
ROOT
ATOM      1  CA  VAL A   1      13.040 -33.611 -24.470  0.00  0.00    +0.133 C 
ENDROOT
BRANCH   1   2
ATOM      2  CB  VAL A   1      13.684 -32.192 -24.438  0.00  0.00    +0.023 C 
ATOM      3  CG2 VAL A   1      12.801 -31.241 -23.668  0.00  0.00    +0.002 C 
ATOM      4  CG1 VAL A   1      15.049 -32.238 -23.838  0.00  0.00    +0.002 C 
ENDBRANCH   1   2
BRANCH   1   5
ATOM      5  N   VAL A   1      12.898 -34.145 -23.136  0.00  0.00    -0.239 NA
ATOM      6  H   VAL A   1      13.743 -34.508 -22.650  0.00  0.00    +0.142 HD
ENDBRANCH   1   5
BRANCH   1   7
ATOM      7  C   VAL A   1      13.919 -34.541 -25.305  0.00  0.00    +0.224 C 
ATOM      8  O   VAL A   1      14.636 -35.416 -24.779  0.00  0.00    -0.287 OA
ENDBRANCH   1   7
TORSDOF 3
REMARK  Name = ../refined-set-2016/4hdf/4hdf_pocket.pdb
REMARK  220 active torsions:
REMARK  status: ('A' for Active; 'I' for Inactive)
REMARK    1  A    between atoms: _1  and  _3
REMARK    2  A    between atoms: _3  and  _4
REMARK    3  A    between atoms: _3  and  _6
REMARK    4  A    between atoms: _6  and  _7
REMARK    5  A    between atoms: _7  and  _8
REMARK    6  A    between atoms: _8  and  _9
REMARK    7  A    between atoms: _18  and  _20
REMARK    8  A    between atoms: _20  and  _21
REMARK    9  A    between atoms: _20  and  _23
REMARK   10  A    between atoms: _23  and  _24
REMARK   11  A    between atoms: _27  and  _29
REMARK   12  A    between atoms: _29  and  _30
REMARK   13  A    between atoms: _29  and  _32
REMARK   14  A    between atoms: _32  and  _33
REMARK   15  A    between atoms: _36  and  _38
REMARK   16  A    between atoms: _38  and  _39
REMARK   17  A    between atoms: _38  and  _41
REMARK   18  A    between atoms: _41  and  _42
REMARK   19  A    between atoms: _45  and  _47
REMARK   20  A    between atoms: _47  and  _48
REMARK   21  A    between atoms: _47  and  _50
REMARK   22  A    between atoms: _50  and  _51
REMARK   23  A    between atoms: _54  and  _56
REMARK   24  A    between atoms: _56  and  _57
REMARK   25  A    between atoms: _59  and  _61
REMARK   26  A    between atoms: _61  and  _62
REMARK   27  A    between atoms: _65  and  _67
REMARK   28  A    between atoms: _67  and  _68
REMARK   29  A    between atoms: _67  and  _70
REMARK   30  A    between atoms: _70  and  _71
REMARK   31  A    between atoms: _74  and  _76
REMARK   32  A    between atoms: _76  and  _77
REMARK   33  A    between atoms: _76  and  _79
REMARK   34  A    between atoms: _79  and  _80
REMARK   35  A    between atoms: _83  and  _85
REMARK   36  A    between atoms: _85  and  _86
REMARK   37  A    between atoms: _85  and  _88
REMARK   38  A    between atoms: _88  and  _89
REMARK   39  A    between atoms: _92  and  _94
REMARK   40  A    between atoms: _94  and  _95
REMARK   41  A    between atoms: _94  and  _97
REMARK   42  A    between atoms: _100  and  _102
REMARK   43  A    between atoms: _102  and  _103
REMARK   44  A    between atoms: _102  and  _105
REMARK   45  A    between atoms: _105  and  _106
REMARK   46  A    between atoms: _106  and  _107
REMARK   47  A    between atoms: _107  and  _108
REMARK   48  A    between atoms: _108  and  _109
REMARK   49  A    between atoms: _113  and  _115
REMARK   50  A    between atoms: _115  and  _116
REMARK   51  A    between atoms: _115  and  _118
REMARK   52  A    between atoms: _118  and  _119
REMARK   53  A    between atoms: _119  and  _120
REMARK   54  A    between atoms: _122  and  _124
REMARK   55  A    between atoms: _124  and  _125
REMARK   56  A    between atoms: _124  and  _127
REMARK   57  A    between atoms: _127  and  _128
REMARK   58  A    between atoms: _131  and  _133
REMARK   59  A    between atoms: _133  and  _134
REMARK   60  A    between atoms: _136  and  _138
REMARK   61  A    between atoms: _138  and  _139
REMARK   62  A    between atoms: _141  and  _143
REMARK   63  A    between atoms: _143  and  _144
REMARK   64  A    between atoms: _143  and  _146
REMARK   65  A    between atoms: _146  and  _147
REMARK   66  A    between atoms: _150  and  _152
REMARK   67  A    between atoms: _152  and  _153
REMARK   68  A    between atoms: _155  and  _157
REMARK   69  A    between atoms: _157  and  _158
REMARK   70  A    between atoms: _160  and  _162
REMARK   71  A    between atoms: _162  and  _163
REMARK   72  A    between atoms: _162  and  _165
REMARK   73  A    between atoms: _165  and  _166
REMARK   74  A    between atoms: _172  and  _174
REMARK   75  A    between atoms: _174  and  _175
REMARK   76  A    between atoms: _174  and  _177
REMARK   77  A    between atoms: _177  and  _178
REMARK   78  A    between atoms: _181  and  _183
REMARK   79  A    between atoms: _183  and  _184
REMARK   80  A    between atoms: _183  and  _186
REMARK   81  A    between atoms: _186  and  _187
REMARK   82  A    between atoms: _190  and  _192
REMARK   83  A    between atoms: _192  and  _193
REMARK   84  A    between atoms: _192  and  _195
REMARK   85  A    between atoms: _195  and  _196
REMARK   86  A    between atoms: _200  and  _201
REMARK   87  A    between atoms: _206  and  _208
REMARK   88  A    between atoms: _208  and  _209
REMARK   89  A    between atoms: _212  and  _214
REMARK   90  A    between atoms: _214  and  _215
REMARK   91  A    between atoms: _214  and  _217
REMARK   92  A    between atoms: _217  and  _218
REMARK   93  A    between atoms: _223  and  _225
REMARK   94  A    between atoms: _225  and  _226
REMARK   95  A    between atoms: _225  and  _228
REMARK   96  A    between atoms: _228  and  _229
REMARK   97  A    between atoms: _232  and  _234
REMARK   98  A    between atoms: _234  and  _235
REMARK   99  A    between atoms: _237  and  _239
REMARK  100  A    between atoms: _239  and  _240
REMARK  101  A    between atoms: _239  and  _242
REMARK  102  A    between atoms: _242  and  _243
REMARK  103  A    between atoms: _243  and  _244
REMARK  104  A    between atoms: _244  and  _245
REMARK  105  A    between atoms: _254  and  _256
REMARK  106  A    between atoms: _256  and  _257
REMARK  107  A    between atoms: _256  and  _259
REMARK  108  A    between atoms: _259  and  _260
REMARK  109  A    between atoms: _265  and  _267
REMARK  110  A    between atoms: _267  and  _268
REMARK  111  A    between atoms: _267  and  _270
REMARK  112  A    between atoms: _270  and  _271
REMARK  113  A    between atoms: _271  and  _272
REMARK  114  A    between atoms: _272  and  _273
REMARK  115  A    between atoms: _282  and  _284
REMARK  116  A    between atoms: _284  and  _285
REMARK  117  A    between atoms: _284  and  _287
REMARK  118  A    between atoms: _287  and  _288
REMARK  119  A    between atoms: _291  and  _293
REMARK  120  A    between atoms: _293  and  _294
REMARK  121  A    between atoms: _293  and  _296
REMARK  122  A    between atoms: _296  and  _297
REMARK  123  A    between atoms: _300  and  _302
REMARK  124  A    between atoms: _302  and  _303
REMARK  125  A    between atoms: _302  and  _305
REMARK  126  A    between atoms: _305  and  _306
REMARK  127  A    between atoms: _309  and  _311
REMARK  128  A    between atoms: _311  and  _312
REMARK  129  A    between atoms: _311  and  _314
REMARK  130  A    between atoms: _314  and  _315
REMARK  131  A    between atoms: _318  and  _320
REMARK  132  A    between atoms: _320  and  _321
REMARK  133  A    between atoms: _323  and  _325
REMARK  134  A    between atoms: _325  and  _326
REMARK  135  A    between atoms: _329  and  _331
REMARK  136  A    between atoms: _331  and  _332
REMARK  137  A    between atoms: _331  and  _334
REMARK  138  A    between atoms: _334  and  _335
REMARK  139  A    between atoms: _338  and  _340
REMARK  140  A    between atoms: _340  and  _341
REMARK  141  A    between atoms: _340  and  _343
REMARK  142  A    between atoms: _343  and  _344
REMARK  143  A    between atoms: _347  and  _349
REMARK  144  A    between atoms: _349  and  _350
REMARK  145  A    between atoms: _349  and  _352
REMARK  146  A    between atoms: _352  and  _353
REMARK  147  A    between atoms: _356  and  _358
REMARK  148  A    between atoms: _358  and  _359
REMARK  149  A    between atoms: _358  and  _361
REMARK  150  A    between atoms: _364  and  _366
REMARK  151  A    between atoms: _366  and  _367
REMARK  152  A    between atoms: _366  and  _369
REMARK  153  A    between atoms: _369  and  _370
REMARK  154  A    between atoms: _370  and  _371
REMARK  155  A    between atoms: _371  and  _372
REMARK  156  A    between atoms: _372  and  _373
REMARK  157  A    between atoms: _377  and  _379
REMARK  158  A    between atoms: _379  and  _380
REMARK  159  A    between atoms: _379  and  _382
REMARK  160  A    between atoms: _382  and  _383
REMARK  161  A    between atoms: _383  and  _384
REMARK  162  A    between atoms: _386  and  _388
REMARK  163  A    between atoms: _388  and  _389
REMARK  164  A    between atoms: _388  and  _391
REMARK  165  A    between atoms: _391  and  _392
REMARK  166  A    between atoms: _395  and  _397
REMARK  167  A    between atoms: _397  and  _398
REMARK  168  A    between atoms: _400  and  _402
REMARK  169  A    between atoms: _402  and  _403
REMARK  170  A    between atoms: _405  and  _407
REMARK  171  A    between atoms: _407  and  _408
REMARK  172  A    between atoms: _407  and  _410
REMARK  173  A    between atoms: _410  and  _411
REMARK  174  A    between atoms: _414  and  _416
REMARK  175  A    between atoms: _416  and  _417
REMARK  176  A    between atoms: _419  and  _421
REMARK  177  A    between atoms: _421  and  _422
REMARK  178  A    between atoms: _424  and  _426
REMARK  179  A    between atoms: _426  and  _427
REMARK  180  A    between atoms: _426  and  _429
REMARK  181  A    between atoms: _429  and  _430
REMARK  182  A    between atoms: _433  and  _435
REMARK  183  A    between atoms: _435  and  _436
REMARK  184  A    between atoms: _435  and  _438
REMARK  185  A    between atoms: _441  and  _443
REMARK  186  A    between atoms: _443  and  _444
REMARK  187  A    between atoms: _443  and  _446
REMARK  188  A    between atoms: _446  and  _447
REMARK  189  A    between atoms: _451  and  _452
REMARK  190  A    between atoms: _457  and  _459
REMARK  191  A    between atoms: _459  and  _460
REMARK  192  A    between atoms: _459  and  _462
REMARK  193  A    between atoms: _462  and  _463
REMARK  194  A    between atoms: _467  and  _468
REMARK  195  A    between atoms: _473  and  _475
REMARK  196  A    between atoms: _475  and  _476
REMARK  197  A    between atoms: _479  and  _481
REMARK  198  A    between atoms: _481  and  _482
REMARK  199  A    between atoms: _481  and  _484
REMARK  200  A    between atoms: _484  and  _485
REMARK  201  A    between atoms: _490  and  _492
REMARK  202  A    between atoms: _492  and  _493
REMARK  203  A    between atoms: _492  and  _495
REMARK  204  A    between atoms: _495  and  _496
REMARK  205  A    between atoms: _499  and  _501
REMARK  206  A    between atoms: _501  and  _502
REMARK  207  A    between atoms: _501  and  _504
REMARK  208  A    between atoms: _504  and  _505
REMARK  209  A    between atoms: _508  and  _510
REMARK  210  A    between atoms: _510  and  _511
REMARK  211  A    between atoms: _513  and  _515
REMARK  212  A    between atoms: _515  and  _516
REMARK  213  A    between atoms: _515  and  _518
REMARK  214  A    between atoms: _518  and  _519
REMARK  215  A    between atoms: _519  and  _520
REMARK  216  A    between atoms: _520  and  _521
REMARK  217  A    between atoms: _530  and  _532
REMARK  218  A    between atoms: _532  and  _533
REMARK  219  A    between atoms: _532  and  _535
REMARK  220  A    between atoms: _535  and  _536
REMARK                            x       y       z     vdW  Elec       q    Type
REMARK                         _______ _______ _______ _____ _____    ______ ____
ROOT
ATOM      1  CA  LEU A   1      16.084 -29.780 -27.765  0.00  0.00    +0.133 C 
ENDROOT
BRANCH   1   2
ATOM      2  N   LEU A   1      16.914 -28.877 -28.562  0.00  0.00    -0.239 NA
ATOM      3  H   LEU A   1      16.990 -27.887 -28.251  0.00  0.00    +0.142 HD
ENDBRANCH   1   2
BRANCH   1   4
ATOM      4  C   LEU A   1      14.644 -29.582 -28.198  0.00  0.00    +0.224 C 
ATOM      5  O   LEU A   1      14.220 -28.445 -28.383  0.00  0.00    -0.287 OA
ENDBRANCH   1   4
BRANCH   1   6
ATOM      6  CB  LEU A   1      16.240 -29.509 -26.269  0.00  0.00    +0.025 C 
BRANCH   6   7
ATOM      7  CG  LEU A   1      17.680 -29.468 -25.736  0.00  0.00    +0.002 C 
ATOM      8  CD2 LEU A   1      17.666 -29.175 -24.249  0.00  0.00    +0.000 C 
ATOM      9  CD1 LEU A   1      18.459 -30.747 -26.029  0.00  0.00    +0.000 C 
ENDBRANCH   6   7
ENDBRANCH   1   6
TORSDOF 4
REMARK  Name = ../refined-set-2016/4hdf/4hdf_pocket.pdb
REMARK  220 active torsions:
REMARK  status: ('A' for Active; 'I' for Inactive)
REMARK    1  A    between atoms: _1  and  _3
REMARK    2  A    between atoms: _3  and  _4
REMARK    3  A    between atoms: _3  and  _6
REMARK    4  A    between atoms: _6  and  _7
REMARK    5  A    between atoms: _7  and  _8
REMARK    6  A    between atoms: _8  and  _9
REMARK    7  A    between atoms: _18  and  _20
REMARK    8  A    between atoms: _20  and  _21
REMARK    9  A    between atoms: _20  and  _23
REMARK   10  A    between atoms: _23  and  _24
REMARK   11  A    between atoms: _27  and  _29
REMARK   12  A    between atoms: _29  and  _30
REMARK   13  A    between atoms: _29  and  _32
REMARK   14  A    between atoms: _32  and  _33
REMARK   15  A    between atoms: _36  and  _38
REMARK   16  A    between atoms: _38  and  _39
REMARK   17  A    between atoms: _38  and  _41
REMARK   18  A    between atoms: _41  and  _42
REMARK   19  A    between atoms: _45  and  _47
REMARK   20  A    between atoms: _47  and  _48
REMARK   21  A    between atoms: _47  and  _50
REMARK   22  A    between atoms: _50  and  _51
REMARK   23  A    between atoms: _54  and  _56
REMARK   24  A    between atoms: _56  and  _57
REMARK   25  A    between atoms: _59  and  _61
REMARK   26  A    between atoms: _61  and  _62
REMARK   27  A    between atoms: _65  and  _67
REMARK   28  A    between atoms: _67  and  _68
REMARK   29  A    between atoms: _67  and  _70
REMARK   30  A    between atoms: _70  and  _71
REMARK   31  A    between atoms: _74  and  _76
REMARK   32  A    between atoms: _76  and  _77
REMARK   33  A    between atoms: _76  and  _79
REMARK   34  A    between atoms: _79  and  _80
REMARK   35  A    between atoms: _83  and  _85
REMARK   36  A    between atoms: _85  and  _86
REMARK   37  A    between atoms: _85  and  _88
REMARK   38  A    between atoms: _88  and  _89
REMARK   39  A    between atoms: _92  and  _94
REMARK   40  A    between atoms: _94  and  _95
REMARK   41  A    between atoms: _94  and  _97
REMARK   42  A    between atoms: _100  and  _102
REMARK   43  A    between atoms: _102  and  _103
REMARK   44  A    between atoms: _102  and  _105
REMARK   45  A    between atoms: _105  and  _106
REMARK   46  A    between atoms: _106  and  _107
REMARK   47  A    between atoms: _107  and  _108
REMARK   48  A    between atoms: _108  and  _109
REMARK   49  A    between atoms: _113  and  _115
REMARK   50  A    between atoms: _115  and  _116
REMARK   51  A    between atoms: _115  and  _118
REMARK   52  A    between atoms: _118  and  _119
REMARK   53  A    between atoms: _119  and  _120
REMARK   54  A    between atoms: _122  and  _124
REMARK   55  A    between atoms: _124  and  _125
REMARK   56  A    between atoms: _124  and  _127
REMARK   57  A    between atoms: _127  and  _128
REMARK   58  A    between atoms: _131  and  _133
REMARK   59  A    between atoms: _133  and  _134
REMARK   60  A    between atoms: _136  and  _138
REMARK   61  A    between atoms: _138  and  _139
REMARK   62  A    between atoms: _141  and  _143
REMARK   63  A    between atoms: _143  and  _144
REMARK   64  A    between atoms: _143  and  _146
REMARK   65  A    between atoms: _146  and  _147
REMARK   66  A    between atoms: _150  and  _152
REMARK   67  A    between atoms: _152  and  _153
REMARK   68  A    between atoms: _155  and  _157
REMARK   69  A    between atoms: _157  and  _158
REMARK   70  A    between atoms: _160  and  _162
REMARK   71  A    between atoms: _162  and  _163
REMARK   72  A    between atoms: _162  and  _165
REMARK   73  A    between atoms: _165  and  _166
REMARK   74  A    between atoms: _172  and  _174
REMARK   75  A    between atoms: _174  and  _175
REMARK   76  A    between atoms: _174  and  _177
REMARK   77  A    between atoms: _177  and  _178
REMARK   78  A    between atoms: _181  and  _183
REMARK   79  A    between atoms: _183  and  _184
REMARK   80  A    between atoms: _183  and  _186
REMARK   81  A    between atoms: _186  and  _187
REMARK   82  A    between atoms: _190  and  _192
REMARK   83  A    between atoms: _192  and  _193
REMARK   84  A    between atoms: _192  and  _195
REMARK   85  A    between atoms: _195  and  _196
REMARK   86  A    between atoms: _200  and  _201
REMARK   87  A    between atoms: _206  and  _208
REMARK   88  A    between atoms: _208  and  _209
REMARK   89  A    between atoms: _212  and  _214
REMARK   90  A    between atoms: _214  and  _215
REMARK   91  A    between atoms: _214  and  _217
REMARK   92  A    between atoms: _217  and  _218
REMARK   93  A    between atoms: _223  and  _225
REMARK   94  A    between atoms: _225  and  _226
REMARK   95  A    between atoms: _225  and  _228
REMARK   96  A    between atoms: _228  and  _229
REMARK   97  A    between atoms: _232  and  _234
REMARK   98  A    between atoms: _234  and  _235
REMARK   99  A    between atoms: _237  and  _239
REMARK  100  A    between atoms: _239  and  _240
REMARK  101  A    between atoms: _239  and  _242
REMARK  102  A    between atoms: _242  and  _243
REMARK  103  A    between atoms: _243  and  _244
REMARK  104  A    between atoms: _244  and  _245
REMARK  105  A    between atoms: _254  and  _256
REMARK  106  A    between atoms: _256  and  _257
REMARK  107  A    between atoms: _256  and  _259
REMARK  108  A    between atoms: _259  and  _260
REMARK  109  A    between atoms: _265  and  _267
REMARK  110  A    between atoms: _267  and  _268
REMARK  111  A    between atoms: _267  and  _270
REMARK  112  A    between atoms: _270  and  _271
REMARK  113  A    between atoms: _271  and  _272
REMARK  114  A    between atoms: _272  and  _273
REMARK  115  A    between atoms: _282  and  _284
REMARK  116  A    between atoms: _284  and  _285
REMARK  117  A    between atoms: _284  and  _287
REMARK  118  A    between atoms: _287  and  _288
REMARK  119  A    between atoms: _291  and  _293
REMARK  120  A    between atoms: _293  and  _294
REMARK  121  A    between atoms: _293  and  _296
REMARK  122  A    between atoms: _296  and  _297
REMARK  123  A    between atoms: _300  and  _302
REMARK  124  A    between atoms: _302  and  _303
REMARK  125  A    between atoms: _302  and  _305
REMARK  126  A    between atoms: _305  and  _306
REMARK  127  A    between atoms: _309  and  _311
REMARK  128  A    between atoms: _311  and  _312
REMARK  129  A    between atoms: _311  and  _314
REMARK  130  A    between atoms: _314  and  _315
REMARK  131  A    between atoms: _318  and  _320
REMARK  132  A    between atoms: _320  and  _321
REMARK  133  A    between atoms: _323  and  _325
REMARK  134  A    between atoms: _325  and  _326
REMARK  135  A    between atoms: _329  and  _331
REMARK  136  A    between atoms: _331  and  _332
REMARK  137  A    between atoms: _331  and  _334
REMARK  138  A    between atoms: _334  and  _335
REMARK  139  A    between atoms: _338  and  _340
REMARK  140  A    between atoms: _340  and  _341
REMARK  141  A    between atoms: _340  and  _343
REMARK  142  A    between atoms: _343  and  _344
REMARK  143  A    between atoms: _347  and  _349
REMARK  144  A    between atoms: _349  and  _350
REMARK  145  A    between atoms: _349  and  _352
REMARK  146  A    between atoms: _352  and  _353
REMARK  147  A    between atoms: _356  and  _358
REMARK  148  A    between atoms: _358  and  _359
REMARK  149  A    between atoms: _358  and  _361
REMARK  150  A    between atoms: _364  and  _366
REMARK  151  A    between atoms: _366  and  _367
REMARK  152  A    between atoms: _366  and  _369
REMARK  153  A    between atoms: _369  and  _370
REMARK  154  A    between atoms: _370  and  _371
REMARK  155  A    between atoms: _371  and  _372
REMARK  156  A    between atoms: _372  and  _373
REMARK  157  A    between atoms: _377  and  _379
REMARK  158  A    between atoms: _379  and  _380
REMARK  159  A    between atoms: _379  and  _382
REMARK  160  A    between atoms: _382  and  _383
REMARK  161  A    between atoms: _383  and  _384
REMARK  162  A    between atoms: _386  and  _388
REMARK  163  A    between atoms: _388  and  _389
REMARK  164  A    between atoms: _388  and  _391
REMARK  165  A    between atoms: _391  and  _392
REMARK  166  A    between atoms: _395  and  _397
REMARK  167  A    between atoms: _397  and  _398
REMARK  168  A    between atoms: _400  and  _402
REMARK  169  A    between atoms: _402  and  _403
REMARK  170  A    between atoms: _405  and  _407
REMARK  171  A    between atoms: _407  and  _408
REMARK  172  A    between atoms: _407  and  _410
REMARK  173  A    between atoms: _410  and  _411
REMARK  174  A    between atoms: _414  and  _416
REMARK  175  A    between atoms: _416  and  _417
REMARK  176  A    between atoms: _419  and  _421
REMARK  177  A    between atoms: _421  and  _422
REMARK  178  A    between atoms: _424  and  _426
REMARK  179  A    between atoms: _426  and  _427
REMARK  180  A    between atoms: _426  and  _429
REMARK  181  A    between atoms: _429  and  _430
REMARK  182  A    between atoms: _433  and  _435
REMARK  183  A    between atoms: _435  and  _436
REMARK  184  A    between atoms: _435  and  _438
REMARK  185  A    between atoms: _441  and  _443
REMARK  186  A    between atoms: _443  and  _444
REMARK  187  A    between atoms: _443  and  _446
REMARK  188  A    between atoms: _446  and  _447
REMARK  189  A    between atoms: _451  and  _452
REMARK  190  A    between atoms: _457  and  _459
REMARK  191  A    between atoms: _459  and  _460
REMARK  192  A    between atoms: _459  and  _462
REMARK  193  A    between atoms: _462  and  _463
REMARK  194  A    between atoms: _467  and  _468
REMARK  195  A    between atoms: _473  and  _475
REMARK  196  A    between atoms: _475  and  _476
REMARK  197  A    between atoms: _479  and  _481
REMARK  198  A    between atoms: _481  and  _482
REMARK  199  A    between atoms: _481  and  _484
REMARK  200  A    between atoms: _484  and  _485
REMARK  201  A    between atoms: _490  and  _492
REMARK  202  A    between atoms: _492  and  _493
REMARK  203  A    between atoms: _492  and  _495
REMARK  204  A    between atoms: _495  and  _496
REMARK  205  A    between atoms: _499  and  _501
REMARK  206  A    between atoms: _501  and  _502
REMARK  207  A    between atoms: _501  and  _504
REMARK  208  A    between atoms: _504  and  _505
REMARK  209  A    between atoms: _508  and  _510
REMARK  210  A    between atoms: _510  and  _511
REMARK  211  A    between atoms: _513  and  _515
REMARK  212  A    between atoms: _515  and  _516
REMARK  213  A    between atoms: _515  and  _518
REMARK  214  A    between atoms: _518  and  _519
REMARK  215  A    between atoms: _519  and  _520
REMARK  216  A    between atoms: _520  and  _521
REMARK  217  A    between atoms: _530  and  _532
REMARK  218  A    between atoms: _532  and  _533
REMARK  219  A    between atoms: _532  and  _535
REMARK  220  A    between atoms: _535  and  _536
REMARK                            x       y       z     vdW  Elec       q    Type
REMARK                         _______ _______ _______ _____ _____    ______ ____
ROOT
ATOM      1  CA  ILE A   6      13.557 -20.437 -26.394  0.00  0.00    +0.149 C 
ENDROOT
BRANCH   1   2
ATOM      2  C   ILE A   6      14.927 -20.730 -26.996  0.00  0.00    +0.241 C 
ATOM      3  O   ILE A   6      15.331 -21.868 -27.215  0.00  0.00    -0.273 OA
ATOM      4  N   ILE A   7      15.620 -19.633 -27.297  0.00  0.00    -0.297 N 
ATOM      5  H   ILE A   7      15.164 -18.707 -27.174  0.00  0.00    +0.150 HD
BRANCH   4   6
ATOM      6  CA  ILE A   7      16.994 -19.676 -27.792  0.00  0.00    +0.149 C 
BRANCH   6   7
ATOM      7  C   ILE A   7      17.904 -19.439 -26.611  0.00  0.00    +0.241 C 
ATOM      8  O   ILE A   7      17.911 -18.351 -26.033  0.00  0.00    -0.273 OA
ATOM      9  N   GLY A   8      18.624 -20.479 -26.195  0.00  0.00    -0.295 N 
ATOM     10  H   GLY A   8      18.553 -21.373 -26.722  0.00  0.00    +0.150 HD
BRANCH   9  11
ATOM     11  CA  GLY A   8      19.493 -20.425 -25.054  0.00  0.00    +0.176 C 
BRANCH  11  12
ATOM     12  C   GLY A   8      20.925 -20.115 -25.420  0.00  0.00    +0.243 C 
ATOM     13  N   ARG A   9      21.778 -20.097 -24.387  0.00  0.00    -0.297 N 
ATOM     14  H   ARG A   9      21.462 -20.445 -23.460  0.00  0.00    +0.150 HD
ATOM     15  O   GLY A   8      21.268 -19.862 -26.568  0.00  0.00    -0.273 OA
BRANCH  13  16
ATOM     16  CA  ARG A   9      23.120 -19.607 -24.533  0.00  0.00    +0.149 C 
BRANCH  16  17
ATOM     17  C   ARG A   9      23.959 -20.411 -25.504  0.00  0.00    +0.241 C 
ATOM     18  N   ASN A  10      23.661 -21.693 -25.689  0.00  0.00    -0.298 N 
ATOM     19  H   ASN A  10      22.893 -22.144 -25.152  0.00  0.00    +0.150 HD
ATOM     20  O   ARG A   9      24.862 -19.834 -26.141  0.00  0.00    -0.273 OA
BRANCH  18  21
ATOM     21  CA  ASN A  10      24.436 -22.449 -26.661  0.00  0.00    +0.146 C 
BRANCH  21  22
ATOM     22  C   ASN A  10      24.360 -21.846 -28.070  0.00  0.00    +0.227 C 
ATOM     23  O   ASN A  10      25.306 -21.973 -28.837  0.00  0.00    -0.286 OA
ENDBRANCH  21  22
BRANCH  21  24
ATOM     24  CB  ASN A  10      23.970 -23.902 -26.705  0.00  0.00    +0.112 C 
BRANCH  24  25
ATOM     25  CG  ASN A  10      22.636 -24.129 -27.357  0.00  0.00    +0.222 C 
ATOM     26  OD1 ASN A  10      21.639 -23.523 -26.960  0.00  0.00    -0.275 OA
ATOM     27  ND2 ASN A  10      22.628 -24.995 -28.370  0.00  0.00    -0.329 N 
ATOM     28 HD21 ASN A  10      23.508 -25.472 -28.653  0.00  0.00    +0.145 HD
ATOM     29 HD22 ASN A  10      21.742 -25.194 -28.877  0.00  0.00    +0.145 HD
ENDBRANCH  24  25
ENDBRANCH  21  24
ENDBRANCH  18  21
ENDBRANCH  16  17
BRANCH  16  30
ATOM     30  CB  ARG A   9      23.834 -19.544 -23.162  0.00  0.00    +0.033 C 
BRANCH  30  31
ATOM     31  CG  ARG A   9      23.244 -18.508 -22.239  0.00  0.00    +0.045 C 
BRANCH  31  32
ATOM     32  CD  ARG A   9      24.002 -18.326 -20.929  0.00  0.00    +0.174 C 
BRANCH  32  33
ATOM     33  NE  ARG A   9      24.030 -19.569 -20.165  0.00  0.00    -0.265 N 
ATOM     34  HE  ARG A   9      23.204 -19.761 -19.563  0.00  0.00    +0.259 HD
ATOM     35  CZ  ARG A   9      24.982 -20.470 -20.154  0.00  0.00    +0.342 C 
ATOM     36  NH2 ARG A   9      24.858 -21.587 -19.427  0.00  0.00    -0.292 N 
ATOM     37 HH21 ARG A   9      23.999 -21.747 -18.863  0.00  0.00    +0.255 HD
ATOM     38 HH22 ARG A   9      25.620 -22.294 -19.426  0.00  0.00    +0.255 HD
ATOM     39  NH1 ARG A   9      26.107 -20.339 -20.827  0.00  0.00    -0.292 N 
ATOM     40 HH11 ARG A   9      26.830 -21.086 -20.783  0.00  0.00    +0.255 HD
ATOM     41 HH12 ARG A   9      26.273 -19.489 -21.403  0.00  0.00    +0.255 HD
ENDBRANCH  32  33
ENDBRANCH  31  32
ENDBRANCH  30  31
ENDBRANCH  16  30
ENDBRANCH  13  16
ENDBRANCH  11  12
ENDBRANCH   9  11
ENDBRANCH   6   7
BRANCH   6  42
ATOM     42  CB  ILE A   7      17.249 -18.637 -28.897  0.00  0.00    +0.027 C 
ATOM     43  CG2 ILE A   7      18.693 -18.704 -29.369  0.00  0.00    +0.002 C 
BRANCH  42  44
ATOM     44  CG1 ILE A   7      16.201 -18.761 -30.022  0.00  0.00    +0.002 C 
ATOM     45  CD1 ILE A   7      16.103 -20.109 -30.711  0.00  0.00    +0.000 C 
ENDBRANCH  42  44
ENDBRANCH   6  42
ENDBRANCH   4   6
ENDBRANCH   1   2
BRANCH   1  47
ATOM     46  C   ASN A   5      11.442 -20.661 -27.524  0.00  0.00    +0.241 C 
ATOM     47  N   ILE A   6      12.534 -21.251 -27.063  0.00  0.00    -0.297 N 
ATOM     48  H   ILE A   6      12.665 -22.277 -27.173  0.00  0.00    +0.150 HD
ATOM     49  O   ASN A   5      11.203 -19.454 -27.478  0.00  0.00    -0.273 OA
BRANCH  46  50
ATOM     50  CA  ASN A   5      10.404 -21.612 -28.147  0.00  0.00    +0.158 C 
BRANCH  50  53
ATOM     51  C   ALA A   4       8.975 -21.872 -26.221  0.00  0.00    +0.241 C 
ATOM     52  O   ALA A   4       9.797 -22.616 -25.672  0.00  0.00    -0.273 OA
ATOM     53  N   ASN A   5       9.147 -21.408 -27.460  0.00  0.00    -0.297 N 
ATOM     54  H   ASN A   5       8.375 -20.898 -27.934  0.00  0.00    +0.150 HD
BRANCH  51  55
ATOM     55  CA  ALA A   4       7.715 -21.406 -25.494  0.00  0.00    +0.149 C 
ATOM     56  CB  ALA A   4       8.005 -20.120 -24.740  0.00  0.00    +0.031 C 
BRANCH  55  58
ATOM     57  C   PRO A   3       5.936 -22.554 -24.290  0.00  0.00    +0.241 C 
ATOM     58  N   ALA A   4       7.209 -22.483 -24.635  0.00  0.00    -0.297 N 
ATOM     59  H   ALA A   4       7.869 -23.208 -24.289  0.00  0.00    +0.150 HD
ATOM     60  O   PRO A   3       5.098 -21.763 -24.712  0.00  0.00    -0.273 OA
BRANCH  57  66
ATOM     61  C   THR A   2       6.893 -25.525 -24.001  0.00  0.00    +0.246 C 
ATOM     62  N   PRO A   3       6.592 -24.656 -23.047  0.00  0.00    -0.272 N 
ATOM     63  CD  PRO A   3       7.140 -24.605 -21.681  0.00  0.00    +0.094 C 
ATOM     64  CG  PRO A   3       6.108 -23.801 -20.987  0.00  0.00    +0.024 C 
ATOM     65  CB  PRO A   3       5.321 -22.995 -21.957  0.00  0.00    +0.031 C 
ATOM     66  CA  PRO A   3       5.561 -23.659 -23.321  0.00  0.00    +0.152 C 
ATOM     67  O   THR A   2       6.243 -25.562 -25.042  0.00  0.00    -0.273 OA
BRANCH  61  68
ATOM     68  CA  THR A   2       8.062 -26.452 -23.774  0.00  0.00    +0.176 C 
BRANCH  68  71
ATOM     69  C   PRO A   1       6.983 -28.619 -23.675  0.00  0.00    +0.239 C 
ATOM     70  O   PRO A   1       6.486 -28.421 -22.567  0.00  0.00    -0.274 OA
ATOM     71  N   THR A   2       7.746 -27.764 -24.360  0.00  0.00    -0.295 N 
ATOM     72  H   THR A   2       8.113 -28.023 -25.298  0.00  0.00    +0.150 HD
BRANCH  69  77
ATOM     73  N   PRO A   1       7.878 -30.625 -24.893  0.00  0.00    -0.210 NA
ATOM     74  CD  PRO A   1       8.093 -31.867 -24.101  0.00  0.00    +0.089 C 
ATOM     75  CG  PRO A   1       7.029 -31.754 -23.045  0.00  0.00    +0.021 C 
ATOM     76  CB  PRO A   1       5.948 -30.839 -23.523  0.00  0.00    +0.028 C 
ATOM     77  CA  PRO A   1       6.690 -29.884 -24.457  0.00  0.00    +0.149 C 
ENDBRANCH  69  77
ENDBRANCH  68  71
BRANCH  68  78
ATOM     78  CB  THR A   2       9.377 -25.881 -24.364  0.00  0.00    +0.137 C 
ATOM     79  CG2 THR A   2       9.379 -25.741 -25.870  0.00  0.00    +0.034 C 
BRANCH  78  80
ATOM     80  OG1 THR A   2       9.537 -24.574 -23.816  0.00  0.00    -0.382 OA
ATOM     81  HG1 THR A   2      10.369 -24.170 -24.168  0.00  0.00    +0.210 HD
ENDBRANCH  78  80
ENDBRANCH  68  78
ENDBRANCH  61  68
ENDBRANCH  57  66
ENDBRANCH  55  58
ENDBRANCH  51  55
ENDBRANCH  50  53
BRANCH  50  82
ATOM     82  CB  ASN A   5      10.266 -21.311 -29.637  0.00  0.00    +0.114 C 
BRANCH  82  83
ATOM     83  CG  ASN A   5       9.385 -22.235 -30.411  0.00  0.00    +0.222 C 
ATOM     84  OD1 ASN A   5       9.267 -23.422 -30.075  0.00  0.00    -0.275 OA
ATOM     85  ND2 ASN A   5       8.747 -21.702 -31.442  0.00  0.00    -0.329 N 
ATOM     86 HD21 ASN A   5       8.885 -20.698 -31.677  0.00  0.00    +0.145 HD
ATOM     87 HD22 ASN A   5       8.108 -22.287 -32.017  0.00  0.00    +0.145 HD
ENDBRANCH  82  83
ENDBRANCH  50  82
ENDBRANCH  46  50
ENDBRANCH   1  47
BRANCH   1  88
ATOM     88  CB  ILE A   6      13.542 -20.618 -24.866  0.00  0.00    +0.027 C 
ATOM     89  CG2 ILE A   6      12.181 -20.201 -24.295  0.00  0.00    +0.002 C 
BRANCH  88  90
ATOM     90  CG1 ILE A   6      13.923 -22.007 -24.381  0.00  0.00    +0.002 C 
ATOM     91  CD1 ILE A   6      13.764 -22.234 -22.903  0.00  0.00    +0.000 C 
ENDBRANCH  88  90
ENDBRANCH   1  88
TORSDOF 32
REMARK  Name = ../refined-set-2016/4hdf/4hdf_pocket.pdb
REMARK  220 active torsions:
REMARK  status: ('A' for Active; 'I' for Inactive)
REMARK    1  A    between atoms: _1  and  _3
REMARK    2  A    between atoms: _3  and  _4
REMARK    3  A    between atoms: _3  and  _6
REMARK    4  A    between atoms: _6  and  _7
REMARK    5  A    between atoms: _7  and  _8
REMARK    6  A    between atoms: _8  and  _9
REMARK    7  A    between atoms: _18  and  _20
REMARK    8  A    between atoms: _20  and  _21
REMARK    9  A    between atoms: _20  and  _23
REMARK   10  A    between atoms: _23  and  _24
REMARK   11  A    between atoms: _27  and  _29
REMARK   12  A    between atoms: _29  and  _30
REMARK   13  A    between atoms: _29  and  _32
REMARK   14  A    between atoms: _32  and  _33
REMARK   15  A    between atoms: _36  and  _38
REMARK   16  A    between atoms: _38  and  _39
REMARK   17  A    between atoms: _38  and  _41
REMARK   18  A    between atoms: _41  and  _42
REMARK   19  A    between atoms: _45  and  _47
REMARK   20  A    between atoms: _47  and  _48
REMARK   21  A    between atoms: _47  and  _50
REMARK   22  A    between atoms: _50  and  _51
REMARK   23  A    between atoms: _54  and  _56
REMARK   24  A    between atoms: _56  and  _57
REMARK   25  A    between atoms: _59  and  _61
REMARK   26  A    between atoms: _61  and  _62
REMARK   27  A    between atoms: _65  and  _67
REMARK   28  A    between atoms: _67  and  _68
REMARK   29  A    between atoms: _67  and  _70
REMARK   30  A    between atoms: _70  and  _71
REMARK   31  A    between atoms: _74  and  _76
REMARK   32  A    between atoms: _76  and  _77
REMARK   33  A    between atoms: _76  and  _79
REMARK   34  A    between atoms: _79  and  _80
REMARK   35  A    between atoms: _83  and  _85
REMARK   36  A    between atoms: _85  and  _86
REMARK   37  A    between atoms: _85  and  _88
REMARK   38  A    between atoms: _88  and  _89
REMARK   39  A    between atoms: _92  and  _94
REMARK   40  A    between atoms: _94  and  _95
REMARK   41  A    between atoms: _94  and  _97
REMARK   42  A    between atoms: _100  and  _102
REMARK   43  A    between atoms: _102  and  _103
REMARK   44  A    between atoms: _102  and  _105
REMARK   45  A    between atoms: _105  and  _106
REMARK   46  A    between atoms: _106  and  _107
REMARK   47  A    between atoms: _107  and  _108
REMARK   48  A    between atoms: _108  and  _109
REMARK   49  A    between atoms: _113  and  _115
REMARK   50  A    between atoms: _115  and  _116
REMARK   51  A    between atoms: _115  and  _118
REMARK   52  A    between atoms: _118  and  _119
REMARK   53  A    between atoms: _119  and  _120
REMARK   54  A    between atoms: _122  and  _124
REMARK   55  A    between atoms: _124  and  _125
REMARK   56  A    between atoms: _124  and  _127
REMARK   57  A    between atoms: _127  and  _128
REMARK   58  A    between atoms: _131  and  _133
REMARK   59  A    between atoms: _133  and  _134
REMARK   60  A    between atoms: _136  and  _138
REMARK   61  A    between atoms: _138  and  _139
REMARK   62  A    between atoms: _141  and  _143
REMARK   63  A    between atoms: _143  and  _144
REMARK   64  A    between atoms: _143  and  _146
REMARK   65  A    between atoms: _146  and  _147
REMARK   66  A    between atoms: _150  and  _152
REMARK   67  A    between atoms: _152  and  _153
REMARK   68  A    between atoms: _155  and  _157
REMARK   69  A    between atoms: _157  and  _158
REMARK   70  A    between atoms: _160  and  _162
REMARK   71  A    between atoms: _162  and  _163
REMARK   72  A    between atoms: _162  and  _165
REMARK   73  A    between atoms: _165  and  _166
REMARK   74  A    between atoms: _172  and  _174
REMARK   75  A    between atoms: _174  and  _175
REMARK   76  A    between atoms: _174  and  _177
REMARK   77  A    between atoms: _177  and  _178
REMARK   78  A    between atoms: _181  and  _183
REMARK   79  A    between atoms: _183  and  _184
REMARK   80  A    between atoms: _183  and  _186
REMARK   81  A    between atoms: _186  and  _187
REMARK   82  A    between atoms: _190  and  _192
REMARK   83  A    between atoms: _192  and  _193
REMARK   84  A    between atoms: _192  and  _195
REMARK   85  A    between atoms: _195  and  _196
REMARK   86  A    between atoms: _200  and  _201
REMARK   87  A    between atoms: _206  and  _208
REMARK   88  A    between atoms: _208  and  _209
REMARK   89  A    between atoms: _212  and  _214
REMARK   90  A    between atoms: _214  and  _215
REMARK   91  A    between atoms: _214  and  _217
REMARK   92  A    between atoms: _217  and  _218
REMARK   93  A    between atoms: _223  and  _225
REMARK   94  A    between atoms: _225  and  _226
REMARK   95  A    between atoms: _225  and  _228
REMARK   96  A    between atoms: _228  and  _229
REMARK   97  A    between atoms: _232  and  _234
REMARK   98  A    between atoms: _234  and  _235
REMARK   99  A    between atoms: _237  and  _239
REMARK  100  A    between atoms: _239  and  _240
REMARK  101  A    between atoms: _239  and  _242
REMARK  102  A    between atoms: _242  and  _243
REMARK  103  A    between atoms: _243  and  _244
REMARK  104  A    between atoms: _244  and  _245
REMARK  105  A    between atoms: _254  and  _256
REMARK  106  A    between atoms: _256  and  _257
REMARK  107  A    between atoms: _256  and  _259
REMARK  108  A    between atoms: _259  and  _260
REMARK  109  A    between atoms: _265  and  _267
REMARK  110  A    between atoms: _267  and  _268
REMARK  111  A    between atoms: _267  and  _270
REMARK  112  A    between atoms: _270  and  _271
REMARK  113  A    between atoms: _271  and  _272
REMARK  114  A    between atoms: _272  and  _273
REMARK  115  A    between atoms: _282  and  _284
REMARK  116  A    between atoms: _284  and  _285
REMARK  117  A    between atoms: _284  and  _287
REMARK  118  A    between atoms: _287  and  _288
REMARK  119  A    between atoms: _291  and  _293
REMARK  120  A    between atoms: _293  and  _294
REMARK  121  A    between atoms: _293  and  _296
REMARK  122  A    between atoms: _296  and  _297
REMARK  123  A    between atoms: _300  and  _302
REMARK  124  A    between atoms: _302  and  _303
REMARK  125  A    between atoms: _302  and  _305
REMARK  126  A    between atoms: _305  and  _306
REMARK  127  A    between atoms: _309  and  _311
REMARK  128  A    between atoms: _311  and  _312
REMARK  129  A    between atoms: _311  and  _314
REMARK  130  A    between atoms: _314  and  _315
REMARK  131  A    between atoms: _318  and  _320
REMARK  132  A    between atoms: _320  and  _321
REMARK  133  A    between atoms: _323  and  _325
REMARK  134  A    between atoms: _325  and  _326
REMARK  135  A    between atoms: _329  and  _331
REMARK  136  A    between atoms: _331  and  _332
REMARK  137  A    between atoms: _331  and  _334
REMARK  138  A    between atoms: _334  and  _335
REMARK  139  A    between atoms: _338  and  _340
REMARK  140  A    between atoms: _340  and  _341
REMARK  141  A    between atoms: _340  and  _343
REMARK  142  A    between atoms: _343  and  _344
REMARK  143  A    between atoms: _347  and  _349
REMARK  144  A    between atoms: _349  and  _350
REMARK  145  A    between atoms: _349  and  _352
REMARK  146  A    between atoms: _352  and  _353
REMARK  147  A    between atoms: _356  and  _358
REMARK  148  A    between atoms: _358  and  _359
REMARK  149  A    between atoms: _358  and  _361
REMARK  150  A    between atoms: _364  and  _366
REMARK  151  A    between atoms: _366  and  _367
REMARK  152  A    between atoms: _366  and  _369
REMARK  153  A    between atoms: _369  and  _370
REMARK  154  A    between atoms: _370  and  _371
REMARK  155  A    between atoms: _371  and  _372
REMARK  156  A    between atoms: _372  and  _373
REMARK  157  A    between atoms: _377  and  _379
REMARK  158  A    between atoms: _379  and  _380
REMARK  159  A    between atoms: _379  and  _382
REMARK  160  A    between atoms: _382  and  _383
REMARK  161  A    between atoms: _383  and  _384
REMARK  162  A    between atoms: _386  and  _388
REMARK  163  A    between atoms: _388  and  _389
REMARK  164  A    between atoms: _388  and  _391
REMARK  165  A    between atoms: _391  and  _392
REMARK  166  A    between atoms: _395  and  _397
REMARK  167  A    between atoms: _397  and  _398
REMARK  168  A    between atoms: _400  and  _402
REMARK  169  A    between atoms: _402  and  _403
REMARK  170  A    between atoms: _405  and  _407
REMARK  171  A    between atoms: _407  and  _408
REMARK  172  A    between atoms: _407  and  _410
REMARK  173  A    between atoms: _410  and  _411
REMARK  174  A    between atoms: _414  and  _416
REMARK  175  A    between atoms: _416  and  _417
REMARK  176  A    between atoms: _419  and  _421
REMARK  177  A    between atoms: _421  and  _422
REMARK  178  A    between atoms: _424  and  _426
REMARK  179  A    between atoms: _426  and  _427
REMARK  180  A    between atoms: _426  and  _429
REMARK  181  A    between atoms: _429  and  _430
REMARK  182  A    between atoms: _433  and  _435
REMARK  183  A    between atoms: _435  and  _436
REMARK  184  A    between atoms: _435  and  _438
REMARK  185  A    between atoms: _441  and  _443
REMARK  186  A    between atoms: _443  and  _444
REMARK  187  A    between atoms: _443  and  _446
REMARK  188  A    between atoms: _446  and  _447
REMARK  189  A    between atoms: _451  and  _452
REMARK  190  A    between atoms: _457  and  _459
REMARK  191  A    between atoms: _459  and  _460
REMARK  192  A    between atoms: _459  and  _462
REMARK  193  A    between atoms: _462  and  _463
REMARK  194  A    between atoms: _467  and  _468
REMARK  195  A    between atoms: _473  and  _475
REMARK  196  A    between atoms: _475  and  _476
REMARK  197  A    between atoms: _479  and  _481
REMARK  198  A    between atoms: _481  and  _482
REMARK  199  A    between atoms: _481  and  _484
REMARK  200  A    between atoms: _484  and  _485
REMARK  201  A    between atoms: _490  and  _492
REMARK  202  A    between atoms: _492  and  _493
REMARK  203  A    between atoms: _492  and  _495
REMARK  204  A    between atoms: _495  and  _496
REMARK  205  A    between atoms: _499  and  _501
REMARK  206  A    between atoms: _501  and  _502
REMARK  207  A    between atoms: _501  and  _504
REMARK  208  A    between atoms: _504  and  _505
REMARK  209  A    between atoms: _508  and  _510
REMARK  210  A    between atoms: _510  and  _511
REMARK  211  A    between atoms: _513  and  _515
REMARK  212  A    between atoms: _515  and  _516
REMARK  213  A    between atoms: _515  and  _518
REMARK  214  A    between atoms: _518  and  _519
REMARK  215  A    between atoms: _519  and  _520
REMARK  216  A    between atoms: _520  and  _521
REMARK  217  A    between atoms: _530  and  _532
REMARK  218  A    between atoms: _532  and  _533
REMARK  219  A    between atoms: _532  and  _535
REMARK  220  A    between atoms: _535  and  _536
REMARK                            x       y       z     vdW  Elec       q    Type
REMARK                         _______ _______ _______ _____ _____    ______ ____
ROOT
ATOM      1  O   HOH     1       9.115 -14.387 -21.347  0.00  0.00    +0.000 OA
ENDROOT
TORSDOF 0
REMARK  Name = ../refined-set-2016/4hdf/4hdf_pocket.pdb
REMARK  220 active torsions:
REMARK  status: ('A' for Active; 'I' for Inactive)
REMARK    1  A    between atoms: _1  and  _3
REMARK    2  A    between atoms: _3  and  _4
REMARK    3  A    between atoms: _3  and  _6
REMARK    4  A    between atoms: _6  and  _7
REMARK    5  A    between atoms: _7  and  _8
REMARK    6  A    between atoms: _8  and  _9
REMARK    7  A    between atoms: _18  and  _20
REMARK    8  A    between atoms: _20  and  _21
REMARK    9  A    between atoms: _20  and  _23
REMARK   10  A    between atoms: _23  and  _24
REMARK   11  A    between atoms: _27  and  _29
REMARK   12  A    between atoms: _29  and  _30
REMARK   13  A    between atoms: _29  and  _32
REMARK   14  A    between atoms: _32  and  _33
REMARK   15  A    between atoms: _36  and  _38
REMARK   16  A    between atoms: _38  and  _39
REMARK   17  A    between atoms: _38  and  _41
REMARK   18  A    between atoms: _41  and  _42
REMARK   19  A    between atoms: _45  and  _47
REMARK   20  A    between atoms: _47  and  _48
REMARK   21  A    between atoms: _47  and  _50
REMARK   22  A    between atoms: _50  and  _51
REMARK   23  A    between atoms: _54  and  _56
REMARK   24  A    between atoms: _56  and  _57
REMARK   25  A    between atoms: _59  and  _61
REMARK   26  A    between atoms: _61  and  _62
REMARK   27  A    between atoms: _65  and  _67
REMARK   28  A    between atoms: _67  and  _68
REMARK   29  A    between atoms: _67  and  _70
REMARK   30  A    between atoms: _70  and  _71
REMARK   31  A    between atoms: _74  and  _76
REMARK   32  A    between atoms: _76  and  _77
REMARK   33  A    between atoms: _76  and  _79
REMARK   34  A    between atoms: _79  and  _80
REMARK   35  A    between atoms: _83  and  _85
REMARK   36  A    between atoms: _85  and  _86
REMARK   37  A    between atoms: _85  and  _88
REMARK   38  A    between atoms: _88  and  _89
REMARK   39  A    between atoms: _92  and  _94
REMARK   40  A    between atoms: _94  and  _95
REMARK   41  A    between atoms: _94  and  _97
REMARK   42  A    between atoms: _100  and  _102
REMARK   43  A    between atoms: _102  and  _103
REMARK   44  A    between atoms: _102  and  _105
REMARK   45  A    between atoms: _105  and  _106
REMARK   46  A    between atoms: _106  and  _107
REMARK   47  A    between atoms: _107  and  _108
REMARK   48  A    between atoms: _108  and  _109
REMARK   49  A    between atoms: _113  and  _115
REMARK   50  A    between atoms: _115  and  _116
REMARK   51  A    between atoms: _115  and  _118
REMARK   52  A    between atoms: _118  and  _119
REMARK   53  A    between atoms: _119  and  _120
REMARK   54  A    between atoms: _122  and  _124
REMARK   55  A    between atoms: _124  and  _125
REMARK   56  A    between atoms: _124  and  _127
REMARK   57  A    between atoms: _127  and  _128
REMARK   58  A    between atoms: _131  and  _133
REMARK   59  A    between atoms: _133  and  _134
REMARK   60  A    between atoms: _136  and  _138
REMARK   61  A    between atoms: _138  and  _139
REMARK   62  A    between atoms: _141  and  _143
REMARK   63  A    between atoms: _143  and  _144
REMARK   64  A    between atoms: _143  and  _146
REMARK   65  A    between atoms: _146  and  _147
REMARK   66  A    between atoms: _150  and  _152
REMARK   67  A    between atoms: _152  and  _153
REMARK   68  A    between atoms: _155  and  _157
REMARK   69  A    between atoms: _157  and  _158
REMARK   70  A    between atoms: _160  and  _162
REMARK   71  A    between atoms: _162  and  _163
REMARK   72  A    between atoms: _162  and  _165
REMARK   73  A    between atoms: _165  and  _166
REMARK   74  A    between atoms: _172  and  _174
REMARK   75  A    between atoms: _174  and  _175
REMARK   76  A    between atoms: _174  and  _177
REMARK   77  A    between atoms: _177  and  _178
REMARK   78  A    between atoms: _181  and  _183
REMARK   79  A    between atoms: _183  and  _184
REMARK   80  A    between atoms: _183  and  _186
REMARK   81  A    between atoms: _186  and  _187
REMARK   82  A    between atoms: _190  and  _192
REMARK   83  A    between atoms: _192  and  _193
REMARK   84  A    between atoms: _192  and  _195
REMARK   85  A    between atoms: _195  and  _196
REMARK   86  A    between atoms: _200  and  _201
REMARK   87  A    between atoms: _206  and  _208
REMARK   88  A    between atoms: _208  and  _209
REMARK   89  A    between atoms: _212  and  _214
REMARK   90  A    between atoms: _214  and  _215
REMARK   91  A    between atoms: _214  and  _217
REMARK   92  A    between atoms: _217  and  _218
REMARK   93  A    between atoms: _223  and  _225
REMARK   94  A    between atoms: _225  and  _226
REMARK   95  A    between atoms: _225  and  _228
REMARK   96  A    between atoms: _228  and  _229
REMARK   97  A    between atoms: _232  and  _234
REMARK   98  A    between atoms: _234  and  _235
REMARK   99  A    between atoms: _237  and  _239
REMARK  100  A    between atoms: _239  and  _240
REMARK  101  A    between atoms: _239  and  _242
REMARK  102  A    between atoms: _242  and  _243
REMARK  103  A    between atoms: _243  and  _244
REMARK  104  A    between atoms: _244  and  _245
REMARK  105  A    between atoms: _254  and  _256
REMARK  106  A    between atoms: _256  and  _257
REMARK  107  A    between atoms: _256  and  _259
REMARK  108  A    between atoms: _259  and  _260
REMARK  109  A    between atoms: _265  and  _267
REMARK  110  A    between atoms: _267  and  _268
REMARK  111  A    between atoms: _267  and  _270
REMARK  112  A    between atoms: _270  and  _271
REMARK  113  A    between atoms: _271  and  _272
REMARK  114  A    between atoms: _272  and  _273
REMARK  115  A    between atoms: _282  and  _284
REMARK  116  A    between atoms: _284  and  _285
REMARK  117  A    between atoms: _284  and  _287
REMARK  118  A    between atoms: _287  and  _288
REMARK  119  A    between atoms: _291  and  _293
REMARK  120  A    between atoms: _293  and  _294
REMARK  121  A    between atoms: _293  and  _296
REMARK  122  A    between atoms: _296  and  _297
REMARK  123  A    between atoms: _300  and  _302
REMARK  124  A    between atoms: _302  and  _303
REMARK  125  A    between atoms: _302  and  _305
REMARK  126  A    between atoms: _305  and  _306
REMARK  127  A    between atoms: _309  and  _311
REMARK  128  A    between atoms: _311  and  _312
REMARK  129  A    between atoms: _311  and  _314
REMARK  130  A    between atoms: _314  and  _315
REMARK  131  A    between atoms: _318  and  _320
REMARK  132  A    between atoms: _320  and  _321
REMARK  133  A    between atoms: _323  and  _325
REMARK  134  A    between atoms: _325  and  _326
REMARK  135  A    between atoms: _329  and  _331
REMARK  136  A    between atoms: _331  and  _332
REMARK  137  A    between atoms: _331  and  _334
REMARK  138  A    between atoms: _334  and  _335
REMARK  139  A    between atoms: _338  and  _340
REMARK  140  A    between atoms: _340  and  _341
REMARK  141  A    between atoms: _340  and  _343
REMARK  142  A    between atoms: _343  and  _344
REMARK  143  A    between atoms: _347  and  _349
REMARK  144  A    between atoms: _349  and  _350
REMARK  145  A    between atoms: _349  and  _352
REMARK  146  A    between atoms: _352  and  _353
REMARK  147  A    between atoms: _356  and  _358
REMARK  148  A    between atoms: _358  and  _359
REMARK  149  A    between atoms: _358  and  _361
REMARK  150  A    between atoms: _364  and  _366
REMARK  151  A    between atoms: _366  and  _367
REMARK  152  A    between atoms: _366  and  _369
REMARK  153  A    between atoms: _369  and  _370
REMARK  154  A    between atoms: _370  and  _371
REMARK  155  A    between atoms: _371  and  _372
REMARK  156  A    between atoms: _372  and  _373
REMARK  157  A    between atoms: _377  and  _379
REMARK  158  A    between atoms: _379  and  _380
REMARK  159  A    between atoms: _379  and  _382
REMARK  160  A    between atoms: _382  and  _383
REMARK  161  A    between atoms: _383  and  _384
REMARK  162  A    between atoms: _386  and  _388
REMARK  163  A    between atoms: _388  and  _389
REMARK  164  A    between atoms: _388  and  _391
REMARK  165  A    between atoms: _391  and  _392
REMARK  166  A    between atoms: _395  and  _397
REMARK  167  A    between atoms: _397  and  _398
REMARK  168  A    between atoms: _400  and  _402
REMARK  169  A    between atoms: _402  and  _403
REMARK  170  A    between atoms: _405  and  _407
REMARK  171  A    between atoms: _407  and  _408
REMARK  172  A    between atoms: _407  and  _410
REMARK  173  A    between atoms: _410  and  _411
REMARK  174  A    between atoms: _414  and  _416
REMARK  175  A    between atoms: _416  and  _417
REMARK  176  A    between atoms: _419  and  _421
REMARK  177  A    between atoms: _421  and  _422
REMARK  178  A    between atoms: _424  and  _426
REMARK  179  A    between atoms: _426  and  _427
REMARK  180  A    between atoms: _426  and  _429
REMARK  181  A    between atoms: _429  and  _430
REMARK  182  A    between atoms: _433  and  _435
REMARK  183  A    between atoms: _435  and  _436
REMARK  184  A    between atoms: _435  and  _438
REMARK  185  A    between atoms: _441  and  _443
REMARK  186  A    between atoms: _443  and  _444
REMARK  187  A    between atoms: _443  and  _446
REMARK  188  A    between atoms: _446  and  _447
REMARK  189  A    between atoms: _451  and  _452
REMARK  190  A    between atoms: _457  and  _459
REMARK  191  A    between atoms: _459  and  _460
REMARK  192  A    between atoms: _459  and  _462
REMARK  193  A    between atoms: _462  and  _463
REMARK  194  A    between atoms: _467  and  _468
REMARK  195  A    between atoms: _473  and  _475
REMARK  196  A    between atoms: _475  and  _476
REMARK  197  A    between atoms: _479  and  _481
REMARK  198  A    between atoms: _481  and  _482
REMARK  199  A    between atoms: _481  and  _484
REMARK  200  A    between atoms: _484  and  _485
REMARK  201  A    between atoms: _490  and  _492
REMARK  202  A    between atoms: _492  and  _493
REMARK  203  A    between atoms: _492  and  _495
REMARK  204  A    between atoms: _495  and  _496
REMARK  205  A    between atoms: _499  and  _501
REMARK  206  A    between atoms: _501  and  _502
REMARK  207  A    between atoms: _501  and  _504
REMARK  208  A    between atoms: _504  and  _505
REMARK  209  A    between atoms: _508  and  _510
REMARK  210  A    between atoms: _510  and  _511
REMARK  211  A    between atoms: _513  and  _515
REMARK  212  A    between atoms: _515  and  _516
REMARK  213  A    between atoms: _515  and  _518
REMARK  214  A    between atoms: _518  and  _519
REMARK  215  A    between atoms: _519  and  _520
REMARK  216  A    between atoms: _520  and  _521
REMARK  217  A    between atoms: _530  and  _532
REMARK  218  A    between atoms: _532  and  _533
REMARK  219  A    between atoms: _532  and  _535
REMARK  220  A    between atoms: _535  and  _536
REMARK                            x       y       z     vdW  Elec       q    Type
REMARK                         _______ _______ _______ _____ _____    ______ ____
ROOT
ATOM      1  O   HOH     1      10.902 -12.300 -21.739  0.00  0.00    +0.000 OA
ENDROOT
TORSDOF 0
REMARK  Name = ../refined-set-2016/4hdf/4hdf_pocket.pdb
REMARK  220 active torsions:
REMARK  status: ('A' for Active; 'I' for Inactive)
REMARK    1  A    between atoms: _1  and  _3
REMARK    2  A    between atoms: _3  and  _4
REMARK    3  A    between atoms: _3  and  _6
REMARK    4  A    between atoms: _6  and  _7
REMARK    5  A    between atoms: _7  and  _8
REMARK    6  A    between atoms: _8  and  _9
REMARK    7  A    between atoms: _18  and  _20
REMARK    8  A    between atoms: _20  and  _21
REMARK    9  A    between atoms: _20  and  _23
REMARK   10  A    between atoms: _23  and  _24
REMARK   11  A    between atoms: _27  and  _29
REMARK   12  A    between atoms: _29  and  _30
REMARK   13  A    between atoms: _29  and  _32
REMARK   14  A    between atoms: _32  and  _33
REMARK   15  A    between atoms: _36  and  _38
REMARK   16  A    between atoms: _38  and  _39
REMARK   17  A    between atoms: _38  and  _41
REMARK   18  A    between atoms: _41  and  _42
REMARK   19  A    between atoms: _45  and  _47
REMARK   20  A    between atoms: _47  and  _48
REMARK   21  A    between atoms: _47  and  _50
REMARK   22  A    between atoms: _50  and  _51
REMARK   23  A    between atoms: _54  and  _56
REMARK   24  A    between atoms: _56  and  _57
REMARK   25  A    between atoms: _59  and  _61
REMARK   26  A    between atoms: _61  and  _62
REMARK   27  A    between atoms: _65  and  _67
REMARK   28  A    between atoms: _67  and  _68
REMARK   29  A    between atoms: _67  and  _70
REMARK   30  A    between atoms: _70  and  _71
REMARK   31  A    between atoms: _74  and  _76
REMARK   32  A    between atoms: _76  and  _77
REMARK   33  A    between atoms: _76  and  _79
REMARK   34  A    between atoms: _79  and  _80
REMARK   35  A    between atoms: _83  and  _85
REMARK   36  A    between atoms: _85  and  _86
REMARK   37  A    between atoms: _85  and  _88
REMARK   38  A    between atoms: _88  and  _89
REMARK   39  A    between atoms: _92  and  _94
REMARK   40  A    between atoms: _94  and  _95
REMARK   41  A    between atoms: _94  and  _97
REMARK   42  A    between atoms: _100  and  _102
REMARK   43  A    between atoms: _102  and  _103
REMARK   44  A    between atoms: _102  and  _105
REMARK   45  A    between atoms: _105  and  _106
REMARK   46  A    between atoms: _106  and  _107
REMARK   47  A    between atoms: _107  and  _108
REMARK   48  A    between atoms: _108  and  _109
REMARK   49  A    between atoms: _113  and  _115
REMARK   50  A    between atoms: _115  and  _116
REMARK   51  A    between atoms: _115  and  _118
REMARK   52  A    between atoms: _118  and  _119
REMARK   53  A    between atoms: _119  and  _120
REMARK   54  A    between atoms: _122  and  _124
REMARK   55  A    between atoms: _124  and  _125
REMARK   56  A    between atoms: _124  and  _127
REMARK   57  A    between atoms: _127  and  _128
REMARK   58  A    between atoms: _131  and  _133
REMARK   59  A    between atoms: _133  and  _134
REMARK   60  A    between atoms: _136  and  _138
REMARK   61  A    between atoms: _138  and  _139
REMARK   62  A    between atoms: _141  and  _143
REMARK   63  A    between atoms: _143  and  _144
REMARK   64  A    between atoms: _143  and  _146
REMARK   65  A    between atoms: _146  and  _147
REMARK   66  A    between atoms: _150  and  _152
REMARK   67  A    between atoms: _152  and  _153
REMARK   68  A    between atoms: _155  and  _157
REMARK   69  A    between atoms: _157  and  _158
REMARK   70  A    between atoms: _160  and  _162
REMARK   71  A    between atoms: _162  and  _163
REMARK   72  A    between atoms: _162  and  _165
REMARK   73  A    between atoms: _165  and  _166
REMARK   74  A    between atoms: _172  and  _174
REMARK   75  A    between atoms: _174  and  _175
REMARK   76  A    between atoms: _174  and  _177
REMARK   77  A    between atoms: _177  and  _178
REMARK   78  A    between atoms: _181  and  _183
REMARK   79  A    between atoms: _183  and  _184
REMARK   80  A    between atoms: _183  and  _186
REMARK   81  A    between atoms: _186  and  _187
REMARK   82  A    between atoms: _190  and  _192
REMARK   83  A    between atoms: _192  and  _193
REMARK   84  A    between atoms: _192  and  _195
REMARK   85  A    between atoms: _195  and  _196
REMARK   86  A    between atoms: _200  and  _201
REMARK   87  A    between atoms: _206  and  _208
REMARK   88  A    between atoms: _208  and  _209
REMARK   89  A    between atoms: _212  and  _214
REMARK   90  A    between atoms: _214  and  _215
REMARK   91  A    between atoms: _214  and  _217
REMARK   92  A    between atoms: _217  and  _218
REMARK   93  A    between atoms: _223  and  _225
REMARK   94  A    between atoms: _225  and  _226
REMARK   95  A    between atoms: _225  and  _228
REMARK   96  A    between atoms: _228  and  _229
REMARK   97  A    between atoms: _232  and  _234
REMARK   98  A    between atoms: _234  and  _235
REMARK   99  A    between atoms: _237  and  _239
REMARK  100  A    between atoms: _239  and  _240
REMARK  101  A    between atoms: _239  and  _242
REMARK  102  A    between atoms: _242  and  _243
REMARK  103  A    between atoms: _243  and  _244
REMARK  104  A    between atoms: _244  and  _245
REMARK  105  A    between atoms: _254  and  _256
REMARK  106  A    between atoms: _256  and  _257
REMARK  107  A    between atoms: _256  and  _259
REMARK  108  A    between atoms: _259  and  _260
REMARK  109  A    between atoms: _265  and  _267
REMARK  110  A    between atoms: _267  and  _268
REMARK  111  A    between atoms: _267  and  _270
REMARK  112  A    between atoms: _270  and  _271
REMARK  113  A    between atoms: _271  and  _272
REMARK  114  A    between atoms: _272  and  _273
REMARK  115  A    between atoms: _282  and  _284
REMARK  116  A    between atoms: _284  and  _285
REMARK  117  A    between atoms: _284  and  _287
REMARK  118  A    between atoms: _287  and  _288
REMARK  119  A    between atoms: _291  and  _293
REMARK  120  A    between atoms: _293  and  _294
REMARK  121  A    between atoms: _293  and  _296
REMARK  122  A    between atoms: _296  and  _297
REMARK  123  A    between atoms: _300  and  _302
REMARK  124  A    between atoms: _302  and  _303
REMARK  125  A    between atoms: _302  and  _305
REMARK  126  A    between atoms: _305  and  _306
REMARK  127  A    between atoms: _309  and  _311
REMARK  128  A    between atoms: _311  and  _312
REMARK  129  A    between atoms: _311  and  _314
REMARK  130  A    between atoms: _314  and  _315
REMARK  131  A    between atoms: _318  and  _320
REMARK  132  A    between atoms: _320  and  _321
REMARK  133  A    between atoms: _323  and  _325
REMARK  134  A    between atoms: _325  and  _326
REMARK  135  A    between atoms: _329  and  _331
REMARK  136  A    between atoms: _331  and  _332
REMARK  137  A    between atoms: _331  and  _334
REMARK  138  A    between atoms: _334  and  _335
REMARK  139  A    between atoms: _338  and  _340
REMARK  140  A    between atoms: _340  and  _341
REMARK  141  A    between atoms: _340  and  _343
REMARK  142  A    between atoms: _343  and  _344
REMARK  143  A    between atoms: _347  and  _349
REMARK  144  A    between atoms: _349  and  _350
REMARK  145  A    between atoms: _349  and  _352
REMARK  146  A    between atoms: _352  and  _353
REMARK  147  A    between atoms: _356  and  _358
REMARK  148  A    between atoms: _358  and  _359
REMARK  149  A    between atoms: _358  and  _361
REMARK  150  A    between atoms: _364  and  _366
REMARK  151  A    between atoms: _366  and  _367
REMARK  152  A    between atoms: _366  and  _369
REMARK  153  A    between atoms: _369  and  _370
REMARK  154  A    between atoms: _370  and  _371
REMARK  155  A    between atoms: _371  and  _372
REMARK  156  A    between atoms: _372  and  _373
REMARK  157  A    between atoms: _377  and  _379
REMARK  158  A    between atoms: _379  and  _380
REMARK  159  A    between atoms: _379  and  _382
REMARK  160  A    between atoms: _382  and  _383
REMARK  161  A    between atoms: _383  and  _384
REMARK  162  A    between atoms: _386  and  _388
REMARK  163  A    between atoms: _388  and  _389
REMARK  164  A    between atoms: _388  and  _391
REMARK  165  A    between atoms: _391  and  _392
REMARK  166  A    between atoms: _395  and  _397
REMARK  167  A    between atoms: _397  and  _398
REMARK  168  A    between atoms: _400  and  _402
REMARK  169  A    between atoms: _402  and  _403
REMARK  170  A    between atoms: _405  and  _407
REMARK  171  A    between atoms: _407  and  _408
REMARK  172  A    between atoms: _407  and  _410
REMARK  173  A    between atoms: _410  and  _411
REMARK  174  A    between atoms: _414  and  _416
REMARK  175  A    between atoms: _416  and  _417
REMARK  176  A    between atoms: _419  and  _421
REMARK  177  A    between atoms: _421  and  _422
REMARK  178  A    between atoms: _424  and  _426
REMARK  179  A    between atoms: _426  and  _427
REMARK  180  A    between atoms: _426  and  _429
REMARK  181  A    between atoms: _429  and  _430
REMARK  182  A    between atoms: _433  and  _435
REMARK  183  A    between atoms: _435  and  _436
REMARK  184  A    between atoms: _435  and  _438
REMARK  185  A    between atoms: _441  and  _443
REMARK  186  A    between atoms: _443  and  _444
REMARK  187  A    between atoms: _443  and  _446
REMARK  188  A    between atoms: _446  and  _447
REMARK  189  A    between atoms: _451  and  _452
REMARK  190  A    between atoms: _457  and  _459
REMARK  191  A    between atoms: _459  and  _460
REMARK  192  A    between atoms: _459  and  _462
REMARK  193  A    between atoms: _462  and  _463
REMARK  194  A    between atoms: _467  and  _468
REMARK  195  A    between atoms: _473  and  _475
REMARK  196  A    between atoms: _475  and  _476
REMARK  197  A    between atoms: _479  and  _481
REMARK  198  A    between atoms: _481  and  _482
REMARK  199  A    between atoms: _481  and  _484
REMARK  200  A    between atoms: _484  and  _485
REMARK  201  A    between atoms: _490  and  _492
REMARK  202  A    between atoms: _492  and  _493
REMARK  203  A    between atoms: _492  and  _495
REMARK  204  A    between atoms: _495  and  _496
REMARK  205  A    between atoms: _499  and  _501
REMARK  206  A    between atoms: _501  and  _502
REMARK  207  A    between atoms: _501  and  _504
REMARK  208  A    between atoms: _504  and  _505
REMARK  209  A    between atoms: _508  and  _510
REMARK  210  A    between atoms: _510  and  _511
REMARK  211  A    between atoms: _513  and  _515
REMARK  212  A    between atoms: _515  and  _516
REMARK  213  A    between atoms: _515  and  _518
REMARK  214  A    between atoms: _518  and  _519
REMARK  215  A    between atoms: _519  and  _520
REMARK  216  A    between atoms: _520  and  _521
REMARK  217  A    between atoms: _530  and  _532
REMARK  218  A    between atoms: _532  and  _533
REMARK  219  A    between atoms: _532  and  _535
REMARK  220  A    between atoms: _535  and  _536
REMARK                            x       y       z     vdW  Elec       q    Type
REMARK                         _______ _______ _______ _____ _____    ______ ____
ROOT
ATOM      1  O   HOH     1       3.304 -17.160 -15.897  0.00  0.00    +0.000 OA
ENDROOT
TORSDOF 0
REMARK  Name = ../refined-set-2016/4hdf/4hdf_pocket.pdb
REMARK  220 active torsions:
REMARK  status: ('A' for Active; 'I' for Inactive)
REMARK    1  A    between atoms: _1  and  _3
REMARK    2  A    between atoms: _3  and  _4
REMARK    3  A    between atoms: _3  and  _6
REMARK    4  A    between atoms: _6  and  _7
REMARK    5  A    between atoms: _7  and  _8
REMARK    6  A    between atoms: _8  and  _9
REMARK    7  A    between atoms: _18  and  _20
REMARK    8  A    between atoms: _20  and  _21
REMARK    9  A    between atoms: _20  and  _23
REMARK   10  A    between atoms: _23  and  _24
REMARK   11  A    between atoms: _27  and  _29
REMARK   12  A    between atoms: _29  and  _30
REMARK   13  A    between atoms: _29  and  _32
REMARK   14  A    between atoms: _32  and  _33
REMARK   15  A    between atoms: _36  and  _38
REMARK   16  A    between atoms: _38  and  _39
REMARK   17  A    between atoms: _38  and  _41
REMARK   18  A    between atoms: _41  and  _42
REMARK   19  A    between atoms: _45  and  _47
REMARK   20  A    between atoms: _47  and  _48
REMARK   21  A    between atoms: _47  and  _50
REMARK   22  A    between atoms: _50  and  _51
REMARK   23  A    between atoms: _54  and  _56
REMARK   24  A    between atoms: _56  and  _57
REMARK   25  A    between atoms: _59  and  _61
REMARK   26  A    between atoms: _61  and  _62
REMARK   27  A    between atoms: _65  and  _67
REMARK   28  A    between atoms: _67  and  _68
REMARK   29  A    between atoms: _67  and  _70
REMARK   30  A    between atoms: _70  and  _71
REMARK   31  A    between atoms: _74  and  _76
REMARK   32  A    between atoms: _76  and  _77
REMARK   33  A    between atoms: _76  and  _79
REMARK   34  A    between atoms: _79  and  _80
REMARK   35  A    between atoms: _83  and  _85
REMARK   36  A    between atoms: _85  and  _86
REMARK   37  A    between atoms: _85  and  _88
REMARK   38  A    between atoms: _88  and  _89
REMARK   39  A    between atoms: _92  and  _94
REMARK   40  A    between atoms: _94  and  _95
REMARK   41  A    between atoms: _94  and  _97
REMARK   42  A    between atoms: _100  and  _102
REMARK   43  A    between atoms: _102  and  _103
REMARK   44  A    between atoms: _102  and  _105
REMARK   45  A    between atoms: _105  and  _106
REMARK   46  A    between atoms: _106  and  _107
REMARK   47  A    between atoms: _107  and  _108
REMARK   48  A    between atoms: _108  and  _109
REMARK   49  A    between atoms: _113  and  _115
REMARK   50  A    between atoms: _115  and  _116
REMARK   51  A    between atoms: _115  and  _118
REMARK   52  A    between atoms: _118  and  _119
REMARK   53  A    between atoms: _119  and  _120
REMARK   54  A    between atoms: _122  and  _124
REMARK   55  A    between atoms: _124  and  _125
REMARK   56  A    between atoms: _124  and  _127
REMARK   57  A    between atoms: _127  and  _128
REMARK   58  A    between atoms: _131  and  _133
REMARK   59  A    between atoms: _133  and  _134
REMARK   60  A    between atoms: _136  and  _138
REMARK   61  A    between atoms: _138  and  _139
REMARK   62  A    between atoms: _141  and  _143
REMARK   63  A    between atoms: _143  and  _144
REMARK   64  A    between atoms: _143  and  _146
REMARK   65  A    between atoms: _146  and  _147
REMARK   66  A    between atoms: _150  and  _152
REMARK   67  A    between atoms: _152  and  _153
REMARK   68  A    between atoms: _155  and  _157
REMARK   69  A    between atoms: _157  and  _158
REMARK   70  A    between atoms: _160  and  _162
REMARK   71  A    between atoms: _162  and  _163
REMARK   72  A    between atoms: _162  and  _165
REMARK   73  A    between atoms: _165  and  _166
REMARK   74  A    between atoms: _172  and  _174
REMARK   75  A    between atoms: _174  and  _175
REMARK   76  A    between atoms: _174  and  _177
REMARK   77  A    between atoms: _177  and  _178
REMARK   78  A    between atoms: _181  and  _183
REMARK   79  A    between atoms: _183  and  _184
REMARK   80  A    between atoms: _183  and  _186
REMARK   81  A    between atoms: _186  and  _187
REMARK   82  A    between atoms: _190  and  _192
REMARK   83  A    between atoms: _192  and  _193
REMARK   84  A    between atoms: _192  and  _195
REMARK   85  A    between atoms: _195  and  _196
REMARK   86  A    between atoms: _200  and  _201
REMARK   87  A    between atoms: _206  and  _208
REMARK   88  A    between atoms: _208  and  _209
REMARK   89  A    between atoms: _212  and  _214
REMARK   90  A    between atoms: _214  and  _215
REMARK   91  A    between atoms: _214  and  _217
REMARK   92  A    between atoms: _217  and  _218
REMARK   93  A    between atoms: _223  and  _225
REMARK   94  A    between atoms: _225  and  _226
REMARK   95  A    between atoms: _225  and  _228
REMARK   96  A    between atoms: _228  and  _229
REMARK   97  A    between atoms: _232  and  _234
REMARK   98  A    between atoms: _234  and  _235
REMARK   99  A    between atoms: _237  and  _239
REMARK  100  A    between atoms: _239  and  _240
REMARK  101  A    between atoms: _239  and  _242
REMARK  102  A    between atoms: _242  and  _243
REMARK  103  A    between atoms: _243  and  _244
REMARK  104  A    between atoms: _244  and  _245
REMARK  105  A    between atoms: _254  and  _256
REMARK  106  A    between atoms: _256  and  _257
REMARK  107  A    between atoms: _256  and  _259
REMARK  108  A    between atoms: _259  and  _260
REMARK  109  A    between atoms: _265  and  _267
REMARK  110  A    between atoms: _267  and  _268
REMARK  111  A    between atoms: _267  and  _270
REMARK  112  A    between atoms: _270  and  _271
REMARK  113  A    between atoms: _271  and  _272
REMARK  114  A    between atoms: _272  and  _273
REMARK  115  A    between atoms: _282  and  _284
REMARK  116  A    between atoms: _284  and  _285
REMARK  117  A    between atoms: _284  and  _287
REMARK  118  A    between atoms: _287  and  _288
REMARK  119  A    between atoms: _291  and  _293
REMARK  120  A    between atoms: _293  and  _294
REMARK  121  A    between atoms: _293  and  _296
REMARK  122  A    between atoms: _296  and  _297
REMARK  123  A    between atoms: _300  and  _302
REMARK  124  A    between atoms: _302  and  _303
REMARK  125  A    between atoms: _302  and  _305
REMARK  126  A    between atoms: _305  and  _306
REMARK  127  A    between atoms: _309  and  _311
REMARK  128  A    between atoms: _311  and  _312
REMARK  129  A    between atoms: _311  and  _314
REMARK  130  A    between atoms: _314  and  _315
REMARK  131  A    between atoms: _318  and  _320
REMARK  132  A    between atoms: _320  and  _321
REMARK  133  A    between atoms: _323  and  _325
REMARK  134  A    between atoms: _325  and  _326
REMARK  135  A    between atoms: _329  and  _331
REMARK  136  A    between atoms: _331  and  _332
REMARK  137  A    between atoms: _331  and  _334
REMARK  138  A    between atoms: _334  and  _335
REMARK  139  A    between atoms: _338  and  _340
REMARK  140  A    between atoms: _340  and  _341
REMARK  141  A    between atoms: _340  and  _343
REMARK  142  A    between atoms: _343  and  _344
REMARK  143  A    between atoms: _347  and  _349
REMARK  144  A    between atoms: _349  and  _350
REMARK  145  A    between atoms: _349  and  _352
REMARK  146  A    between atoms: _352  and  _353
REMARK  147  A    between atoms: _356  and  _358
REMARK  148  A    between atoms: _358  and  _359
REMARK  149  A    between atoms: _358  and  _361
REMARK  150  A    between atoms: _364  and  _366
REMARK  151  A    between atoms: _366  and  _367
REMARK  152  A    between atoms: _366  and  _369
REMARK  153  A    between atoms: _369  and  _370
REMARK  154  A    between atoms: _370  and  _371
REMARK  155  A    between atoms: _371  and  _372
REMARK  156  A    between atoms: _372  and  _373
REMARK  157  A    between atoms: _377  and  _379
REMARK  158  A    between atoms: _379  and  _380
REMARK  159  A    between atoms: _379  and  _382
REMARK  160  A    between atoms: _382  and  _383
REMARK  161  A    between atoms: _383  and  _384
REMARK  162  A    between atoms: _386  and  _388
REMARK  163  A    between atoms: _388  and  _389
REMARK  164  A    between atoms: _388  and  _391
REMARK  165  A    between atoms: _391  and  _392
REMARK  166  A    between atoms: _395  and  _397
REMARK  167  A    between atoms: _397  and  _398
REMARK  168  A    between atoms: _400  and  _402
REMARK  169  A    between atoms: _402  and  _403
REMARK  170  A    between atoms: _405  and  _407
REMARK  171  A    between atoms: _407  and  _408
REMARK  172  A    between atoms: _407  and  _410
REMARK  173  A    between atoms: _410  and  _411
REMARK  174  A    between atoms: _414  and  _416
REMARK  175  A    between atoms: _416  and  _417
REMARK  176  A    between atoms: _419  and  _421
REMARK  177  A    between atoms: _421  and  _422
REMARK  178  A    between atoms: _424  and  _426
REMARK  179  A    between atoms: _426  and  _427
REMARK  180  A    between atoms: _426  and  _429
REMARK  181  A    between atoms: _429  and  _430
REMARK  182  A    between atoms: _433  and  _435
REMARK  183  A    between atoms: _435  and  _436
REMARK  184  A    between atoms: _435  and  _438
REMARK  185  A    between atoms: _441  and  _443
REMARK  186  A    between atoms: _443  and  _444
REMARK  187  A    between atoms: _443  and  _446
REMARK  188  A    between atoms: _446  and  _447
REMARK  189  A    between atoms: _451  and  _452
REMARK  190  A    between atoms: _457  and  _459
REMARK  191  A    between atoms: _459  and  _460
REMARK  192  A    between atoms: _459  and  _462
REMARK  193  A    between atoms: _462  and  _463
REMARK  194  A    between atoms: _467  and  _468
REMARK  195  A    between atoms: _473  and  _475
REMARK  196  A    between atoms: _475  and  _476
REMARK  197  A    between atoms: _479  and  _481
REMARK  198  A    between atoms: _481  and  _482
REMARK  199  A    between atoms: _481  and  _484
REMARK  200  A    between atoms: _484  and  _485
REMARK  201  A    between atoms: _490  and  _492
REMARK  202  A    between atoms: _492  and  _493
REMARK  203  A    between atoms: _492  and  _495
REMARK  204  A    between atoms: _495  and  _496
REMARK  205  A    between atoms: _499  and  _501
REMARK  206  A    between atoms: _501  and  _502
REMARK  207  A    between atoms: _501  and  _504
REMARK  208  A    between atoms: _504  and  _505
REMARK  209  A    between atoms: _508  and  _510
REMARK  210  A    between atoms: _510  and  _511
REMARK  211  A    between atoms: _513  and  _515
REMARK  212  A    between atoms: _515  and  _516
REMARK  213  A    between atoms: _515  and  _518
REMARK  214  A    between atoms: _518  and  _519
REMARK  215  A    between atoms: _519  and  _520
REMARK  216  A    between atoms: _520  and  _521
REMARK  217  A    between atoms: _530  and  _532
REMARK  218  A    between atoms: _532  and  _533
REMARK  219  A    between atoms: _532  and  _535
REMARK  220  A    between atoms: _535  and  _536
REMARK                            x       y       z     vdW  Elec       q    Type
REMARK                         _______ _______ _______ _____ _____    ______ ____
ROOT
ATOM      1  O   HOH     1       8.503  -9.548 -10.736  0.00  0.00    +0.000 OA
ENDROOT
TORSDOF 0
REMARK  Name = ../refined-set-2016/4hdf/4hdf_pocket.pdb
REMARK  220 active torsions:
REMARK  status: ('A' for Active; 'I' for Inactive)
REMARK    1  A    between atoms: _1  and  _3
REMARK    2  A    between atoms: _3  and  _4
REMARK    3  A    between atoms: _3  and  _6
REMARK    4  A    between atoms: _6  and  _7
REMARK    5  A    between atoms: _7  and  _8
REMARK    6  A    between atoms: _8  and  _9
REMARK    7  A    between atoms: _18  and  _20
REMARK    8  A    between atoms: _20  and  _21
REMARK    9  A    between atoms: _20  and  _23
REMARK   10  A    between atoms: _23  and  _24
REMARK   11  A    between atoms: _27  and  _29
REMARK   12  A    between atoms: _29  and  _30
REMARK   13  A    between atoms: _29  and  _32
REMARK   14  A    between atoms: _32  and  _33
REMARK   15  A    between atoms: _36  and  _38
REMARK   16  A    between atoms: _38  and  _39
REMARK   17  A    between atoms: _38  and  _41
REMARK   18  A    between atoms: _41  and  _42
REMARK   19  A    between atoms: _45  and  _47
REMARK   20  A    between atoms: _47  and  _48
REMARK   21  A    between atoms: _47  and  _50
REMARK   22  A    between atoms: _50  and  _51
REMARK   23  A    between atoms: _54  and  _56
REMARK   24  A    between atoms: _56  and  _57
REMARK   25  A    between atoms: _59  and  _61
REMARK   26  A    between atoms: _61  and  _62
REMARK   27  A    between atoms: _65  and  _67
REMARK   28  A    between atoms: _67  and  _68
REMARK   29  A    between atoms: _67  and  _70
REMARK   30  A    between atoms: _70  and  _71
REMARK   31  A    between atoms: _74  and  _76
REMARK   32  A    between atoms: _76  and  _77
REMARK   33  A    between atoms: _76  and  _79
REMARK   34  A    between atoms: _79  and  _80
REMARK   35  A    between atoms: _83  and  _85
REMARK   36  A    between atoms: _85  and  _86
REMARK   37  A    between atoms: _85  and  _88
REMARK   38  A    between atoms: _88  and  _89
REMARK   39  A    between atoms: _92  and  _94
REMARK   40  A    between atoms: _94  and  _95
REMARK   41  A    between atoms: _94  and  _97
REMARK   42  A    between atoms: _100  and  _102
REMARK   43  A    between atoms: _102  and  _103
REMARK   44  A    between atoms: _102  and  _105
REMARK   45  A    between atoms: _105  and  _106
REMARK   46  A    between atoms: _106  and  _107
REMARK   47  A    between atoms: _107  and  _108
REMARK   48  A    between atoms: _108  and  _109
REMARK   49  A    between atoms: _113  and  _115
REMARK   50  A    between atoms: _115  and  _116
REMARK   51  A    between atoms: _115  and  _118
REMARK   52  A    between atoms: _118  and  _119
REMARK   53  A    between atoms: _119  and  _120
REMARK   54  A    between atoms: _122  and  _124
REMARK   55  A    between atoms: _124  and  _125
REMARK   56  A    between atoms: _124  and  _127
REMARK   57  A    between atoms: _127  and  _128
REMARK   58  A    between atoms: _131  and  _133
REMARK   59  A    between atoms: _133  and  _134
REMARK   60  A    between atoms: _136  and  _138
REMARK   61  A    between atoms: _138  and  _139
REMARK   62  A    between atoms: _141  and  _143
REMARK   63  A    between atoms: _143  and  _144
REMARK   64  A    between atoms: _143  and  _146
REMARK   65  A    between atoms: _146  and  _147
REMARK   66  A    between atoms: _150  and  _152
REMARK   67  A    between atoms: _152  and  _153
REMARK   68  A    between atoms: _155  and  _157
REMARK   69  A    between atoms: _157  and  _158
REMARK   70  A    between atoms: _160  and  _162
REMARK   71  A    between atoms: _162  and  _163
REMARK   72  A    between atoms: _162  and  _165
REMARK   73  A    between atoms: _165  and  _166
REMARK   74  A    between atoms: _172  and  _174
REMARK   75  A    between atoms: _174  and  _175
REMARK   76  A    between atoms: _174  and  _177
REMARK   77  A    between atoms: _177  and  _178
REMARK   78  A    between atoms: _181  and  _183
REMARK   79  A    between atoms: _183  and  _184
REMARK   80  A    between atoms: _183  and  _186
REMARK   81  A    between atoms: _186  and  _187
REMARK   82  A    between atoms: _190  and  _192
REMARK   83  A    between atoms: _192  and  _193
REMARK   84  A    between atoms: _192  and  _195
REMARK   85  A    between atoms: _195  and  _196
REMARK   86  A    between atoms: _200  and  _201
REMARK   87  A    between atoms: _206  and  _208
REMARK   88  A    between atoms: _208  and  _209
REMARK   89  A    between atoms: _212  and  _214
REMARK   90  A    between atoms: _214  and  _215
REMARK   91  A    between atoms: _214  and  _217
REMARK   92  A    between atoms: _217  and  _218
REMARK   93  A    between atoms: _223  and  _225
REMARK   94  A    between atoms: _225  and  _226
REMARK   95  A    between atoms: _225  and  _228
REMARK   96  A    between atoms: _228  and  _229
REMARK   97  A    between atoms: _232  and  _234
REMARK   98  A    between atoms: _234  and  _235
REMARK   99  A    between atoms: _237  and  _239
REMARK  100  A    between atoms: _239  and  _240
REMARK  101  A    between atoms: _239  and  _242
REMARK  102  A    between atoms: _242  and  _243
REMARK  103  A    between atoms: _243  and  _244
REMARK  104  A    between atoms: _244  and  _245
REMARK  105  A    between atoms: _254  and  _256
REMARK  106  A    between atoms: _256  and  _257
REMARK  107  A    between atoms: _256  and  _259
REMARK  108  A    between atoms: _259  and  _260
REMARK  109  A    between atoms: _265  and  _267
REMARK  110  A    between atoms: _267  and  _268
REMARK  111  A    between atoms: _267  and  _270
REMARK  112  A    between atoms: _270  and  _271
REMARK  113  A    between atoms: _271  and  _272
REMARK  114  A    between atoms: _272  and  _273
REMARK  115  A    between atoms: _282  and  _284
REMARK  116  A    between atoms: _284  and  _285
REMARK  117  A    between atoms: _284  and  _287
REMARK  118  A    between atoms: _287  and  _288
REMARK  119  A    between atoms: _291  and  _293
REMARK  120  A    between atoms: _293  and  _294
REMARK  121  A    between atoms: _293  and  _296
REMARK  122  A    between atoms: _296  and  _297
REMARK  123  A    between atoms: _300  and  _302
REMARK  124  A    between atoms: _302  and  _303
REMARK  125  A    between atoms: _302  and  _305
REMARK  126  A    between atoms: _305  and  _306
REMARK  127  A    between atoms: _309  and  _311
REMARK  128  A    between atoms: _311  and  _312
REMARK  129  A    between atoms: _311  and  _314
REMARK  130  A    between atoms: _314  and  _315
REMARK  131  A    between atoms: _318  and  _320
REMARK  132  A    between atoms: _320  and  _321
REMARK  133  A    between atoms: _323  and  _325
REMARK  134  A    between atoms: _325  and  _326
REMARK  135  A    between atoms: _329  and  _331
REMARK  136  A    between atoms: _331  and  _332
REMARK  137  A    between atoms: _331  and  _334
REMARK  138  A    between atoms: _334  and  _335
REMARK  139  A    between atoms: _338  and  _340
REMARK  140  A    between atoms: _340  and  _341
REMARK  141  A    between atoms: _340  and  _343
REMARK  142  A    between atoms: _343  and  _344
REMARK  143  A    between atoms: _347  and  _349
REMARK  144  A    between atoms: _349  and  _350
REMARK  145  A    between atoms: _349  and  _352
REMARK  146  A    between atoms: _352  and  _353
REMARK  147  A    between atoms: _356  and  _358
REMARK  148  A    between atoms: _358  and  _359
REMARK  149  A    between atoms: _358  and  _361
REMARK  150  A    between atoms: _364  and  _366
REMARK  151  A    between atoms: _366  and  _367
REMARK  152  A    between atoms: _366  and  _369
REMARK  153  A    between atoms: _369  and  _370
REMARK  154  A    between atoms: _370  and  _371
REMARK  155  A    between atoms: _371  and  _372
REMARK  156  A    between atoms: _372  and  _373
REMARK  157  A    between atoms: _377  and  _379
REMARK  158  A    between atoms: _379  and  _380
REMARK  159  A    between atoms: _379  and  _382
REMARK  160  A    between atoms: _382  and  _383
REMARK  161  A    between atoms: _383  and  _384
REMARK  162  A    between atoms: _386  and  _388
REMARK  163  A    between atoms: _388  and  _389
REMARK  164  A    between atoms: _388  and  _391
REMARK  165  A    between atoms: _391  and  _392
REMARK  166  A    between atoms: _395  and  _397
REMARK  167  A    between atoms: _397  and  _398
REMARK  168  A    between atoms: _400  and  _402
REMARK  169  A    between atoms: _402  and  _403
REMARK  170  A    between atoms: _405  and  _407
REMARK  171  A    between atoms: _407  and  _408
REMARK  172  A    between atoms: _407  and  _410
REMARK  173  A    between atoms: _410  and  _411
REMARK  174  A    between atoms: _414  and  _416
REMARK  175  A    between atoms: _416  and  _417
REMARK  176  A    between atoms: _419  and  _421
REMARK  177  A    between atoms: _421  and  _422
REMARK  178  A    between atoms: _424  and  _426
REMARK  179  A    between atoms: _426  and  _427
REMARK  180  A    between atoms: _426  and  _429
REMARK  181  A    between atoms: _429  and  _430
REMARK  182  A    between atoms: _433  and  _435
REMARK  183  A    between atoms: _435  and  _436
REMARK  184  A    between atoms: _435  and  _438
REMARK  185  A    between atoms: _441  and  _443
REMARK  186  A    between atoms: _443  and  _444
REMARK  187  A    between atoms: _443  and  _446
REMARK  188  A    between atoms: _446  and  _447
REMARK  189  A    between atoms: _451  and  _452
REMARK  190  A    between atoms: _457  and  _459
REMARK  191  A    between atoms: _459  and  _460
REMARK  192  A    between atoms: _459  and  _462
REMARK  193  A    between atoms: _462  and  _463
REMARK  194  A    between atoms: _467  and  _468
REMARK  195  A    between atoms: _473  and  _475
REMARK  196  A    between atoms: _475  and  _476
REMARK  197  A    between atoms: _479  and  _481
REMARK  198  A    between atoms: _481  and  _482
REMARK  199  A    between atoms: _481  and  _484
REMARK  200  A    between atoms: _484  and  _485
REMARK  201  A    between atoms: _490  and  _492
REMARK  202  A    between atoms: _492  and  _493
REMARK  203  A    between atoms: _492  and  _495
REMARK  204  A    between atoms: _495  and  _496
REMARK  205  A    between atoms: _499  and  _501
REMARK  206  A    between atoms: _501  and  _502
REMARK  207  A    between atoms: _501  and  _504
REMARK  208  A    between atoms: _504  and  _505
REMARK  209  A    between atoms: _508  and  _510
REMARK  210  A    between atoms: _510  and  _511
REMARK  211  A    between atoms: _513  and  _515
REMARK  212  A    between atoms: _515  and  _516
REMARK  213  A    between atoms: _515  and  _518
REMARK  214  A    between atoms: _518  and  _519
REMARK  215  A    between atoms: _519  and  _520
REMARK  216  A    between atoms: _520  and  _521
REMARK  217  A    between atoms: _530  and  _532
REMARK  218  A    between atoms: _532  and  _533
REMARK  219  A    between atoms: _532  and  _535
REMARK  220  A    between atoms: _535  and  _536
REMARK                            x       y       z     vdW  Elec       q    Type
REMARK                         _______ _______ _______ _____ _____    ______ ____
ROOT
ATOM      1  O   HOH     1       8.198  -7.553 -17.615  0.00  0.00    +0.000 OA
ENDROOT
TORSDOF 0
REMARK  Name = ../refined-set-2016/4hdf/4hdf_pocket.pdb
REMARK  220 active torsions:
REMARK  status: ('A' for Active; 'I' for Inactive)
REMARK    1  A    between atoms: _1  and  _3
REMARK    2  A    between atoms: _3  and  _4
REMARK    3  A    between atoms: _3  and  _6
REMARK    4  A    between atoms: _6  and  _7
REMARK    5  A    between atoms: _7  and  _8
REMARK    6  A    between atoms: _8  and  _9
REMARK    7  A    between atoms: _18  and  _20
REMARK    8  A    between atoms: _20  and  _21
REMARK    9  A    between atoms: _20  and  _23
REMARK   10  A    between atoms: _23  and  _24
REMARK   11  A    between atoms: _27  and  _29
REMARK   12  A    between atoms: _29  and  _30
REMARK   13  A    between atoms: _29  and  _32
REMARK   14  A    between atoms: _32  and  _33
REMARK   15  A    between atoms: _36  and  _38
REMARK   16  A    between atoms: _38  and  _39
REMARK   17  A    between atoms: _38  and  _41
REMARK   18  A    between atoms: _41  and  _42
REMARK   19  A    between atoms: _45  and  _47
REMARK   20  A    between atoms: _47  and  _48
REMARK   21  A    between atoms: _47  and  _50
REMARK   22  A    between atoms: _50  and  _51
REMARK   23  A    between atoms: _54  and  _56
REMARK   24  A    between atoms: _56  and  _57
REMARK   25  A    between atoms: _59  and  _61
REMARK   26  A    between atoms: _61  and  _62
REMARK   27  A    between atoms: _65  and  _67
REMARK   28  A    between atoms: _67  and  _68
REMARK   29  A    between atoms: _67  and  _70
REMARK   30  A    between atoms: _70  and  _71
REMARK   31  A    between atoms: _74  and  _76
REMARK   32  A    between atoms: _76  and  _77
REMARK   33  A    between atoms: _76  and  _79
REMARK   34  A    between atoms: _79  and  _80
REMARK   35  A    between atoms: _83  and  _85
REMARK   36  A    between atoms: _85  and  _86
REMARK   37  A    between atoms: _85  and  _88
REMARK   38  A    between atoms: _88  and  _89
REMARK   39  A    between atoms: _92  and  _94
REMARK   40  A    between atoms: _94  and  _95
REMARK   41  A    between atoms: _94  and  _97
REMARK   42  A    between atoms: _100  and  _102
REMARK   43  A    between atoms: _102  and  _103
REMARK   44  A    between atoms: _102  and  _105
REMARK   45  A    between atoms: _105  and  _106
REMARK   46  A    between atoms: _106  and  _107
REMARK   47  A    between atoms: _107  and  _108
REMARK   48  A    between atoms: _108  and  _109
REMARK   49  A    between atoms: _113  and  _115
REMARK   50  A    between atoms: _115  and  _116
REMARK   51  A    between atoms: _115  and  _118
REMARK   52  A    between atoms: _118  and  _119
REMARK   53  A    between atoms: _119  and  _120
REMARK   54  A    between atoms: _122  and  _124
REMARK   55  A    between atoms: _124  and  _125
REMARK   56  A    between atoms: _124  and  _127
REMARK   57  A    between atoms: _127  and  _128
REMARK   58  A    between atoms: _131  and  _133
REMARK   59  A    between atoms: _133  and  _134
REMARK   60  A    between atoms: _136  and  _138
REMARK   61  A    between atoms: _138  and  _139
REMARK   62  A    between atoms: _141  and  _143
REMARK   63  A    between atoms: _143  and  _144
REMARK   64  A    between atoms: _143  and  _146
REMARK   65  A    between atoms: _146  and  _147
REMARK   66  A    between atoms: _150  and  _152
REMARK   67  A    between atoms: _152  and  _153
REMARK   68  A    between atoms: _155  and  _157
REMARK   69  A    between atoms: _157  and  _158
REMARK   70  A    between atoms: _160  and  _162
REMARK   71  A    between atoms: _162  and  _163
REMARK   72  A    between atoms: _162  and  _165
REMARK   73  A    between atoms: _165  and  _166
REMARK   74  A    between atoms: _172  and  _174
REMARK   75  A    between atoms: _174  and  _175
REMARK   76  A    between atoms: _174  and  _177
REMARK   77  A    between atoms: _177  and  _178
REMARK   78  A    between atoms: _181  and  _183
REMARK   79  A    between atoms: _183  and  _184
REMARK   80  A    between atoms: _183  and  _186
REMARK   81  A    between atoms: _186  and  _187
REMARK   82  A    between atoms: _190  and  _192
REMARK   83  A    between atoms: _192  and  _193
REMARK   84  A    between atoms: _192  and  _195
REMARK   85  A    between atoms: _195  and  _196
REMARK   86  A    between atoms: _200  and  _201
REMARK   87  A    between atoms: _206  and  _208
REMARK   88  A    between atoms: _208  and  _209
REMARK   89  A    between atoms: _212  and  _214
REMARK   90  A    between atoms: _214  and  _215
REMARK   91  A    between atoms: _214  and  _217
REMARK   92  A    between atoms: _217  and  _218
REMARK   93  A    between atoms: _223  and  _225
REMARK   94  A    between atoms: _225  and  _226
REMARK   95  A    between atoms: _225  and  _228
REMARK   96  A    between atoms: _228  and  _229
REMARK   97  A    between atoms: _232  and  _234
REMARK   98  A    between atoms: _234  and  _235
REMARK   99  A    between atoms: _237  and  _239
REMARK  100  A    between atoms: _239  and  _240
REMARK  101  A    between atoms: _239  and  _242
REMARK  102  A    between atoms: _242  and  _243
REMARK  103  A    between atoms: _243  and  _244
REMARK  104  A    between atoms: _244  and  _245
REMARK  105  A    between atoms: _254  and  _256
REMARK  106  A    between atoms: _256  and  _257
REMARK  107  A    between atoms: _256  and  _259
REMARK  108  A    between atoms: _259  and  _260
REMARK  109  A    between atoms: _265  and  _267
REMARK  110  A    between atoms: _267  and  _268
REMARK  111  A    between atoms: _267  and  _270
REMARK  112  A    between atoms: _270  and  _271
REMARK  113  A    between atoms: _271  and  _272
REMARK  114  A    between atoms: _272  and  _273
REMARK  115  A    between atoms: _282  and  _284
REMARK  116  A    between atoms: _284  and  _285
REMARK  117  A    between atoms: _284  and  _287
REMARK  118  A    between atoms: _287  and  _288
REMARK  119  A    between atoms: _291  and  _293
REMARK  120  A    between atoms: _293  and  _294
REMARK  121  A    between atoms: _293  and  _296
REMARK  122  A    between atoms: _296  and  _297
REMARK  123  A    between atoms: _300  and  _302
REMARK  124  A    between atoms: _302  and  _303
REMARK  125  A    between atoms: _302  and  _305
REMARK  126  A    between atoms: _305  and  _306
REMARK  127  A    between atoms: _309  and  _311
REMARK  128  A    between atoms: _311  and  _312
REMARK  129  A    between atoms: _311  and  _314
REMARK  130  A    between atoms: _314  and  _315
REMARK  131  A    between atoms: _318  and  _320
REMARK  132  A    between atoms: _320  and  _321
REMARK  133  A    between atoms: _323  and  _325
REMARK  134  A    between atoms: _325  and  _326
REMARK  135  A    between atoms: _329  and  _331
REMARK  136  A    between atoms: _331  and  _332
REMARK  137  A    between atoms: _331  and  _334
REMARK  138  A    between atoms: _334  and  _335
REMARK  139  A    between atoms: _338  and  _340
REMARK  140  A    between atoms: _340  and  _341
REMARK  141  A    between atoms: _340  and  _343
REMARK  142  A    between atoms: _343  and  _344
REMARK  143  A    between atoms: _347  and  _349
REMARK  144  A    between atoms: _349  and  _350
REMARK  145  A    between atoms: _349  and  _352
REMARK  146  A    between atoms: _352  and  _353
REMARK  147  A    between atoms: _356  and  _358
REMARK  148  A    between atoms: _358  and  _359
REMARK  149  A    between atoms: _358  and  _361
REMARK  150  A    between atoms: _364  and  _366
REMARK  151  A    between atoms: _366  and  _367
REMARK  152  A    between atoms: _366  and  _369
REMARK  153  A    between atoms: _369  and  _370
REMARK  154  A    between atoms: _370  and  _371
REMARK  155  A    between atoms: _371  and  _372
REMARK  156  A    between atoms: _372  and  _373
REMARK  157  A    between atoms: _377  and  _379
REMARK  158  A    between atoms: _379  and  _380
REMARK  159  A    between atoms: _379  and  _382
REMARK  160  A    between atoms: _382  and  _383
REMARK  161  A    between atoms: _383  and  _384
REMARK  162  A    between atoms: _386  and  _388
REMARK  163  A    between atoms: _388  and  _389
REMARK  164  A    between atoms: _388  and  _391
REMARK  165  A    between atoms: _391  and  _392
REMARK  166  A    between atoms: _395  and  _397
REMARK  167  A    between atoms: _397  and  _398
REMARK  168  A    between atoms: _400  and  _402
REMARK  169  A    between atoms: _402  and  _403
REMARK  170  A    between atoms: _405  and  _407
REMARK  171  A    between atoms: _407  and  _408
REMARK  172  A    between atoms: _407  and  _410
REMARK  173  A    between atoms: _410  and  _411
REMARK  174  A    between atoms: _414  and  _416
REMARK  175  A    between atoms: _416  and  _417
REMARK  176  A    between atoms: _419  and  _421
REMARK  177  A    between atoms: _421  and  _422
REMARK  178  A    between atoms: _424  and  _426
REMARK  179  A    between atoms: _426  and  _427
REMARK  180  A    between atoms: _426  and  _429
REMARK  181  A    between atoms: _429  and  _430
REMARK  182  A    between atoms: _433  and  _435
REMARK  183  A    between atoms: _435  and  _436
REMARK  184  A    between atoms: _435  and  _438
REMARK  185  A    between atoms: _441  and  _443
REMARK  186  A    between atoms: _443  and  _444
REMARK  187  A    between atoms: _443  and  _446
REMARK  188  A    between atoms: _446  and  _447
REMARK  189  A    between atoms: _451  and  _452
REMARK  190  A    between atoms: _457  and  _459
REMARK  191  A    between atoms: _459  and  _460
REMARK  192  A    between atoms: _459  and  _462
REMARK  193  A    between atoms: _462  and  _463
REMARK  194  A    between atoms: _467  and  _468
REMARK  195  A    between atoms: _473  and  _475
REMARK  196  A    between atoms: _475  and  _476
REMARK  197  A    between atoms: _479  and  _481
REMARK  198  A    between atoms: _481  and  _482
REMARK  199  A    between atoms: _481  and  _484
REMARK  200  A    between atoms: _484  and  _485
REMARK  201  A    between atoms: _490  and  _492
REMARK  202  A    between atoms: _492  and  _493
REMARK  203  A    between atoms: _492  and  _495
REMARK  204  A    between atoms: _495  and  _496
REMARK  205  A    between atoms: _499  and  _501
REMARK  206  A    between atoms: _501  and  _502
REMARK  207  A    between atoms: _501  and  _504
REMARK  208  A    between atoms: _504  and  _505
REMARK  209  A    between atoms: _508  and  _510
REMARK  210  A    between atoms: _510  and  _511
REMARK  211  A    between atoms: _513  and  _515
REMARK  212  A    between atoms: _515  and  _516
REMARK  213  A    between atoms: _515  and  _518
REMARK  214  A    between atoms: _518  and  _519
REMARK  215  A    between atoms: _519  and  _520
REMARK  216  A    between atoms: _520  and  _521
REMARK  217  A    between atoms: _530  and  _532
REMARK  218  A    between atoms: _532  and  _533
REMARK  219  A    between atoms: _532  and  _535
REMARK  220  A    between atoms: _535  and  _536
REMARK                            x       y       z     vdW  Elec       q    Type
REMARK                         _______ _______ _______ _____ _____    ______ ____
ROOT
ATOM      1  O   HOH     1      -0.495 -18.575 -18.571  0.00  0.00    +0.000 OA
ENDROOT
TORSDOF 0
REMARK  Name = ../refined-set-2016/4hdf/4hdf_pocket.pdb
REMARK  220 active torsions:
REMARK  status: ('A' for Active; 'I' for Inactive)
REMARK    1  A    between atoms: _1  and  _3
REMARK    2  A    between atoms: _3  and  _4
REMARK    3  A    between atoms: _3  and  _6
REMARK    4  A    between atoms: _6  and  _7
REMARK    5  A    between atoms: _7  and  _8
REMARK    6  A    between atoms: _8  and  _9
REMARK    7  A    between atoms: _18  and  _20
REMARK    8  A    between atoms: _20  and  _21
REMARK    9  A    between atoms: _20  and  _23
REMARK   10  A    between atoms: _23  and  _24
REMARK   11  A    between atoms: _27  and  _29
REMARK   12  A    between atoms: _29  and  _30
REMARK   13  A    between atoms: _29  and  _32
REMARK   14  A    between atoms: _32  and  _33
REMARK   15  A    between atoms: _36  and  _38
REMARK   16  A    between atoms: _38  and  _39
REMARK   17  A    between atoms: _38  and  _41
REMARK   18  A    between atoms: _41  and  _42
REMARK   19  A    between atoms: _45  and  _47
REMARK   20  A    between atoms: _47  and  _48
REMARK   21  A    between atoms: _47  and  _50
REMARK   22  A    between atoms: _50  and  _51
REMARK   23  A    between atoms: _54  and  _56
REMARK   24  A    between atoms: _56  and  _57
REMARK   25  A    between atoms: _59  and  _61
REMARK   26  A    between atoms: _61  and  _62
REMARK   27  A    between atoms: _65  and  _67
REMARK   28  A    between atoms: _67  and  _68
REMARK   29  A    between atoms: _67  and  _70
REMARK   30  A    between atoms: _70  and  _71
REMARK   31  A    between atoms: _74  and  _76
REMARK   32  A    between atoms: _76  and  _77
REMARK   33  A    between atoms: _76  and  _79
REMARK   34  A    between atoms: _79  and  _80
REMARK   35  A    between atoms: _83  and  _85
REMARK   36  A    between atoms: _85  and  _86
REMARK   37  A    between atoms: _85  and  _88
REMARK   38  A    between atoms: _88  and  _89
REMARK   39  A    between atoms: _92  and  _94
REMARK   40  A    between atoms: _94  and  _95
REMARK   41  A    between atoms: _94  and  _97
REMARK   42  A    between atoms: _100  and  _102
REMARK   43  A    between atoms: _102  and  _103
REMARK   44  A    between atoms: _102  and  _105
REMARK   45  A    between atoms: _105  and  _106
REMARK   46  A    between atoms: _106  and  _107
REMARK   47  A    between atoms: _107  and  _108
REMARK   48  A    between atoms: _108  and  _109
REMARK   49  A    between atoms: _113  and  _115
REMARK   50  A    between atoms: _115  and  _116
REMARK   51  A    between atoms: _115  and  _118
REMARK   52  A    between atoms: _118  and  _119
REMARK   53  A    between atoms: _119  and  _120
REMARK   54  A    between atoms: _122  and  _124
REMARK   55  A    between atoms: _124  and  _125
REMARK   56  A    between atoms: _124  and  _127
REMARK   57  A    between atoms: _127  and  _128
REMARK   58  A    between atoms: _131  and  _133
REMARK   59  A    between atoms: _133  and  _134
REMARK   60  A    between atoms: _136  and  _138
REMARK   61  A    between atoms: _138  and  _139
REMARK   62  A    between atoms: _141  and  _143
REMARK   63  A    between atoms: _143  and  _144
REMARK   64  A    between atoms: _143  and  _146
REMARK   65  A    between atoms: _146  and  _147
REMARK   66  A    between atoms: _150  and  _152
REMARK   67  A    between atoms: _152  and  _153
REMARK   68  A    between atoms: _155  and  _157
REMARK   69  A    between atoms: _157  and  _158
REMARK   70  A    between atoms: _160  and  _162
REMARK   71  A    between atoms: _162  and  _163
REMARK   72  A    between atoms: _162  and  _165
REMARK   73  A    between atoms: _165  and  _166
REMARK   74  A    between atoms: _172  and  _174
REMARK   75  A    between atoms: _174  and  _175
REMARK   76  A    between atoms: _174  and  _177
REMARK   77  A    between atoms: _177  and  _178
REMARK   78  A    between atoms: _181  and  _183
REMARK   79  A    between atoms: _183  and  _184
REMARK   80  A    between atoms: _183  and  _186
REMARK   81  A    between atoms: _186  and  _187
REMARK   82  A    between atoms: _190  and  _192
REMARK   83  A    between atoms: _192  and  _193
REMARK   84  A    between atoms: _192  and  _195
REMARK   85  A    between atoms: _195  and  _196
REMARK   86  A    between atoms: _200  and  _201
REMARK   87  A    between atoms: _206  and  _208
REMARK   88  A    between atoms: _208  and  _209
REMARK   89  A    between atoms: _212  and  _214
REMARK   90  A    between atoms: _214  and  _215
REMARK   91  A    between atoms: _214  and  _217
REMARK   92  A    between atoms: _217  and  _218
REMARK   93  A    between atoms: _223  and  _225
REMARK   94  A    between atoms: _225  and  _226
REMARK   95  A    between atoms: _225  and  _228
REMARK   96  A    between atoms: _228  and  _229
REMARK   97  A    between atoms: _232  and  _234
REMARK   98  A    between atoms: _234  and  _235
REMARK   99  A    between atoms: _237  and  _239
REMARK  100  A    between atoms: _239  and  _240
REMARK  101  A    between atoms: _239  and  _242
REMARK  102  A    between atoms: _242  and  _243
REMARK  103  A    between atoms: _243  and  _244
REMARK  104  A    between atoms: _244  and  _245
REMARK  105  A    between atoms: _254  and  _256
REMARK  106  A    between atoms: _256  and  _257
REMARK  107  A    between atoms: _256  and  _259
REMARK  108  A    between atoms: _259  and  _260
REMARK  109  A    between atoms: _265  and  _267
REMARK  110  A    between atoms: _267  and  _268
REMARK  111  A    between atoms: _267  and  _270
REMARK  112  A    between atoms: _270  and  _271
REMARK  113  A    between atoms: _271  and  _272
REMARK  114  A    between atoms: _272  and  _273
REMARK  115  A    between atoms: _282  and  _284
REMARK  116  A    between atoms: _284  and  _285
REMARK  117  A    between atoms: _284  and  _287
REMARK  118  A    between atoms: _287  and  _288
REMARK  119  A    between atoms: _291  and  _293
REMARK  120  A    between atoms: _293  and  _294
REMARK  121  A    between atoms: _293  and  _296
REMARK  122  A    between atoms: _296  and  _297
REMARK  123  A    between atoms: _300  and  _302
REMARK  124  A    between atoms: _302  and  _303
REMARK  125  A    between atoms: _302  and  _305
REMARK  126  A    between atoms: _305  and  _306
REMARK  127  A    between atoms: _309  and  _311
REMARK  128  A    between atoms: _311  and  _312
REMARK  129  A    between atoms: _311  and  _314
REMARK  130  A    between atoms: _314  and  _315
REMARK  131  A    between atoms: _318  and  _320
REMARK  132  A    between atoms: _320  and  _321
REMARK  133  A    between atoms: _323  and  _325
REMARK  134  A    between atoms: _325  and  _326
REMARK  135  A    between atoms: _329  and  _331
REMARK  136  A    between atoms: _331  and  _332
REMARK  137  A    between atoms: _331  and  _334
REMARK  138  A    between atoms: _334  and  _335
REMARK  139  A    between atoms: _338  and  _340
REMARK  140  A    between atoms: _340  and  _341
REMARK  141  A    between atoms: _340  and  _343
REMARK  142  A    between atoms: _343  and  _344
REMARK  143  A    between atoms: _347  and  _349
REMARK  144  A    between atoms: _349  and  _350
REMARK  145  A    between atoms: _349  and  _352
REMARK  146  A    between atoms: _352  and  _353
REMARK  147  A    between atoms: _356  and  _358
REMARK  148  A    between atoms: _358  and  _359
REMARK  149  A    between atoms: _358  and  _361
REMARK  150  A    between atoms: _364  and  _366
REMARK  151  A    between atoms: _366  and  _367
REMARK  152  A    between atoms: _366  and  _369
REMARK  153  A    between atoms: _369  and  _370
REMARK  154  A    between atoms: _370  and  _371
REMARK  155  A    between atoms: _371  and  _372
REMARK  156  A    between atoms: _372  and  _373
REMARK  157  A    between atoms: _377  and  _379
REMARK  158  A    between atoms: _379  and  _380
REMARK  159  A    between atoms: _379  and  _382
REMARK  160  A    between atoms: _382  and  _383
REMARK  161  A    between atoms: _383  and  _384
REMARK  162  A    between atoms: _386  and  _388
REMARK  163  A    between atoms: _388  and  _389
REMARK  164  A    between atoms: _388  and  _391
REMARK  165  A    between atoms: _391  and  _392
REMARK  166  A    between atoms: _395  and  _397
REMARK  167  A    between atoms: _397  and  _398
REMARK  168  A    between atoms: _400  and  _402
REMARK  169  A    between atoms: _402  and  _403
REMARK  170  A    between atoms: _405  and  _407
REMARK  171  A    between atoms: _407  and  _408
REMARK  172  A    between atoms: _407  and  _410
REMARK  173  A    between atoms: _410  and  _411
REMARK  174  A    between atoms: _414  and  _416
REMARK  175  A    between atoms: _416  and  _417
REMARK  176  A    between atoms: _419  and  _421
REMARK  177  A    between atoms: _421  and  _422
REMARK  178  A    between atoms: _424  and  _426
REMARK  179  A    between atoms: _426  and  _427
REMARK  180  A    between atoms: _426  and  _429
REMARK  181  A    between atoms: _429  and  _430
REMARK  182  A    between atoms: _433  and  _435
REMARK  183  A    between atoms: _435  and  _436
REMARK  184  A    between atoms: _435  and  _438
REMARK  185  A    between atoms: _441  and  _443
REMARK  186  A    between atoms: _443  and  _444
REMARK  187  A    between atoms: _443  and  _446
REMARK  188  A    between atoms: _446  and  _447
REMARK  189  A    between atoms: _451  and  _452
REMARK  190  A    between atoms: _457  and  _459
REMARK  191  A    between atoms: _459  and  _460
REMARK  192  A    between atoms: _459  and  _462
REMARK  193  A    between atoms: _462  and  _463
REMARK  194  A    between atoms: _467  and  _468
REMARK  195  A    between atoms: _473  and  _475
REMARK  196  A    between atoms: _475  and  _476
REMARK  197  A    between atoms: _479  and  _481
REMARK  198  A    between atoms: _481  and  _482
REMARK  199  A    between atoms: _481  and  _484
REMARK  200  A    between atoms: _484  and  _485
REMARK  201  A    between atoms: _490  and  _492
REMARK  202  A    between atoms: _492  and  _493
REMARK  203  A    between atoms: _492  and  _495
REMARK  204  A    between atoms: _495  and  _496
REMARK  205  A    between atoms: _499  and  _501
REMARK  206  A    between atoms: _501  and  _502
REMARK  207  A    between atoms: _501  and  _504
REMARK  208  A    between atoms: _504  and  _505
REMARK  209  A    between atoms: _508  and  _510
REMARK  210  A    between atoms: _510  and  _511
REMARK  211  A    between atoms: _513  and  _515
REMARK  212  A    between atoms: _515  and  _516
REMARK  213  A    between atoms: _515  and  _518
REMARK  214  A    between atoms: _518  and  _519
REMARK  215  A    between atoms: _519  and  _520
REMARK  216  A    between atoms: _520  and  _521
REMARK  217  A    between atoms: _530  and  _532
REMARK  218  A    between atoms: _532  and  _533
REMARK  219  A    between atoms: _532  and  _535
REMARK  220  A    between atoms: _535  and  _536
REMARK                            x       y       z     vdW  Elec       q    Type
REMARK                         _______ _______ _______ _____ _____    ______ ____
ROOT
ATOM      1  O   HOH     1      20.294 -18.295 -10.205  0.00  0.00    +0.000 OA
ENDROOT
TORSDOF 0
REMARK  Name = ../refined-set-2016/4hdf/4hdf_pocket.pdb
REMARK  220 active torsions:
REMARK  status: ('A' for Active; 'I' for Inactive)
REMARK    1  A    between atoms: _1  and  _3
REMARK    2  A    between atoms: _3  and  _4
REMARK    3  A    between atoms: _3  and  _6
REMARK    4  A    between atoms: _6  and  _7
REMARK    5  A    between atoms: _7  and  _8
REMARK    6  A    between atoms: _8  and  _9
REMARK    7  A    between atoms: _18  and  _20
REMARK    8  A    between atoms: _20  and  _21
REMARK    9  A    between atoms: _20  and  _23
REMARK   10  A    between atoms: _23  and  _24
REMARK   11  A    between atoms: _27  and  _29
REMARK   12  A    between atoms: _29  and  _30
REMARK   13  A    between atoms: _29  and  _32
REMARK   14  A    between atoms: _32  and  _33
REMARK   15  A    between atoms: _36  and  _38
REMARK   16  A    between atoms: _38  and  _39
REMARK   17  A    between atoms: _38  and  _41
REMARK   18  A    between atoms: _41  and  _42
REMARK   19  A    between atoms: _45  and  _47
REMARK   20  A    between atoms: _47  and  _48
REMARK   21  A    between atoms: _47  and  _50
REMARK   22  A    between atoms: _50  and  _51
REMARK   23  A    between atoms: _54  and  _56
REMARK   24  A    between atoms: _56  and  _57
REMARK   25  A    between atoms: _59  and  _61
REMARK   26  A    between atoms: _61  and  _62
REMARK   27  A    between atoms: _65  and  _67
REMARK   28  A    between atoms: _67  and  _68
REMARK   29  A    between atoms: _67  and  _70
REMARK   30  A    between atoms: _70  and  _71
REMARK   31  A    between atoms: _74  and  _76
REMARK   32  A    between atoms: _76  and  _77
REMARK   33  A    between atoms: _76  and  _79
REMARK   34  A    between atoms: _79  and  _80
REMARK   35  A    between atoms: _83  and  _85
REMARK   36  A    between atoms: _85  and  _86
REMARK   37  A    between atoms: _85  and  _88
REMARK   38  A    between atoms: _88  and  _89
REMARK   39  A    between atoms: _92  and  _94
REMARK   40  A    between atoms: _94  and  _95
REMARK   41  A    between atoms: _94  and  _97
REMARK   42  A    between atoms: _100  and  _102
REMARK   43  A    between atoms: _102  and  _103
REMARK   44  A    between atoms: _102  and  _105
REMARK   45  A    between atoms: _105  and  _106
REMARK   46  A    between atoms: _106  and  _107
REMARK   47  A    between atoms: _107  and  _108
REMARK   48  A    between atoms: _108  and  _109
REMARK   49  A    between atoms: _113  and  _115
REMARK   50  A    between atoms: _115  and  _116
REMARK   51  A    between atoms: _115  and  _118
REMARK   52  A    between atoms: _118  and  _119
REMARK   53  A    between atoms: _119  and  _120
REMARK   54  A    between atoms: _122  and  _124
REMARK   55  A    between atoms: _124  and  _125
REMARK   56  A    between atoms: _124  and  _127
REMARK   57  A    between atoms: _127  and  _128
REMARK   58  A    between atoms: _131  and  _133
REMARK   59  A    between atoms: _133  and  _134
REMARK   60  A    between atoms: _136  and  _138
REMARK   61  A    between atoms: _138  and  _139
REMARK   62  A    between atoms: _141  and  _143
REMARK   63  A    between atoms: _143  and  _144
REMARK   64  A    between atoms: _143  and  _146
REMARK   65  A    between atoms: _146  and  _147
REMARK   66  A    between atoms: _150  and  _152
REMARK   67  A    between atoms: _152  and  _153
REMARK   68  A    between atoms: _155  and  _157
REMARK   69  A    between atoms: _157  and  _158
REMARK   70  A    between atoms: _160  and  _162
REMARK   71  A    between atoms: _162  and  _163
REMARK   72  A    between atoms: _162  and  _165
REMARK   73  A    between atoms: _165  and  _166
REMARK   74  A    between atoms: _172  and  _174
REMARK   75  A    between atoms: _174  and  _175
REMARK   76  A    between atoms: _174  and  _177
REMARK   77  A    between atoms: _177  and  _178
REMARK   78  A    between atoms: _181  and  _183
REMARK   79  A    between atoms: _183  and  _184
REMARK   80  A    between atoms: _183  and  _186
REMARK   81  A    between atoms: _186  and  _187
REMARK   82  A    between atoms: _190  and  _192
REMARK   83  A    between atoms: _192  and  _193
REMARK   84  A    between atoms: _192  and  _195
REMARK   85  A    between atoms: _195  and  _196
REMARK   86  A    between atoms: _200  and  _201
REMARK   87  A    between atoms: _206  and  _208
REMARK   88  A    between atoms: _208  and  _209
REMARK   89  A    between atoms: _212  and  _214
REMARK   90  A    between atoms: _214  and  _215
REMARK   91  A    between atoms: _214  and  _217
REMARK   92  A    between atoms: _217  and  _218
REMARK   93  A    between atoms: _223  and  _225
REMARK   94  A    between atoms: _225  and  _226
REMARK   95  A    between atoms: _225  and  _228
REMARK   96  A    between atoms: _228  and  _229
REMARK   97  A    between atoms: _232  and  _234
REMARK   98  A    between atoms: _234  and  _235
REMARK   99  A    between atoms: _237  and  _239
REMARK  100  A    between atoms: _239  and  _240
REMARK  101  A    between atoms: _239  and  _242
REMARK  102  A    between atoms: _242  and  _243
REMARK  103  A    between atoms: _243  and  _244
REMARK  104  A    between atoms: _244  and  _245
REMARK  105  A    between atoms: _254  and  _256
REMARK  106  A    between atoms: _256  and  _257
REMARK  107  A    between atoms: _256  and  _259
REMARK  108  A    between atoms: _259  and  _260
REMARK  109  A    between atoms: _265  and  _267
REMARK  110  A    between atoms: _267  and  _268
REMARK  111  A    between atoms: _267  and  _270
REMARK  112  A    between atoms: _270  and  _271
REMARK  113  A    between atoms: _271  and  _272
REMARK  114  A    between atoms: _272  and  _273
REMARK  115  A    between atoms: _282  and  _284
REMARK  116  A    between atoms: _284  and  _285
REMARK  117  A    between atoms: _284  and  _287
REMARK  118  A    between atoms: _287  and  _288
REMARK  119  A    between atoms: _291  and  _293
REMARK  120  A    between atoms: _293  and  _294
REMARK  121  A    between atoms: _293  and  _296
REMARK  122  A    between atoms: _296  and  _297
REMARK  123  A    between atoms: _300  and  _302
REMARK  124  A    between atoms: _302  and  _303
REMARK  125  A    between atoms: _302  and  _305
REMARK  126  A    between atoms: _305  and  _306
REMARK  127  A    between atoms: _309  and  _311
REMARK  128  A    between atoms: _311  and  _312
REMARK  129  A    between atoms: _311  and  _314
REMARK  130  A    between atoms: _314  and  _315
REMARK  131  A    between atoms: _318  and  _320
REMARK  132  A    between atoms: _320  and  _321
REMARK  133  A    between atoms: _323  and  _325
REMARK  134  A    between atoms: _325  and  _326
REMARK  135  A    between atoms: _329  and  _331
REMARK  136  A    between atoms: _331  and  _332
REMARK  137  A    between atoms: _331  and  _334
REMARK  138  A    between atoms: _334  and  _335
REMARK  139  A    between atoms: _338  and  _340
REMARK  140  A    between atoms: _340  and  _341
REMARK  141  A    between atoms: _340  and  _343
REMARK  142  A    between atoms: _343  and  _344
REMARK  143  A    between atoms: _347  and  _349
REMARK  144  A    between atoms: _349  and  _350
REMARK  145  A    between atoms: _349  and  _352
REMARK  146  A    between atoms: _352  and  _353
REMARK  147  A    between atoms: _356  and  _358
REMARK  148  A    between atoms: _358  and  _359
REMARK  149  A    between atoms: _358  and  _361
REMARK  150  A    between atoms: _364  and  _366
REMARK  151  A    between atoms: _366  and  _367
REMARK  152  A    between atoms: _366  and  _369
REMARK  153  A    between atoms: _369  and  _370
REMARK  154  A    between atoms: _370  and  _371
REMARK  155  A    between atoms: _371  and  _372
REMARK  156  A    between atoms: _372  and  _373
REMARK  157  A    between atoms: _377  and  _379
REMARK  158  A    between atoms: _379  and  _380
REMARK  159  A    between atoms: _379  and  _382
REMARK  160  A    between atoms: _382  and  _383
REMARK  161  A    between atoms: _383  and  _384
REMARK  162  A    between atoms: _386  and  _388
REMARK  163  A    between atoms: _388  and  _389
REMARK  164  A    between atoms: _388  and  _391
REMARK  165  A    between atoms: _391  and  _392
REMARK  166  A    between atoms: _395  and  _397
REMARK  167  A    between atoms: _397  and  _398
REMARK  168  A    between atoms: _400  and  _402
REMARK  169  A    between atoms: _402  and  _403
REMARK  170  A    between atoms: _405  and  _407
REMARK  171  A    between atoms: _407  and  _408
REMARK  172  A    between atoms: _407  and  _410
REMARK  173  A    between atoms: _410  and  _411
REMARK  174  A    between atoms: _414  and  _416
REMARK  175  A    between atoms: _416  and  _417
REMARK  176  A    between atoms: _419  and  _421
REMARK  177  A    between atoms: _421  and  _422
REMARK  178  A    between atoms: _424  and  _426
REMARK  179  A    between atoms: _426  and  _427
REMARK  180  A    between atoms: _426  and  _429
REMARK  181  A    between atoms: _429  and  _430
REMARK  182  A    between atoms: _433  and  _435
REMARK  183  A    between atoms: _435  and  _436
REMARK  184  A    between atoms: _435  and  _438
REMARK  185  A    between atoms: _441  and  _443
REMARK  186  A    between atoms: _443  and  _444
REMARK  187  A    between atoms: _443  and  _446
REMARK  188  A    between atoms: _446  and  _447
REMARK  189  A    between atoms: _451  and  _452
REMARK  190  A    between atoms: _457  and  _459
REMARK  191  A    between atoms: _459  and  _460
REMARK  192  A    between atoms: _459  and  _462
REMARK  193  A    between atoms: _462  and  _463
REMARK  194  A    between atoms: _467  and  _468
REMARK  195  A    between atoms: _473  and  _475
REMARK  196  A    between atoms: _475  and  _476
REMARK  197  A    between atoms: _479  and  _481
REMARK  198  A    between atoms: _481  and  _482
REMARK  199  A    between atoms: _481  and  _484
REMARK  200  A    between atoms: _484  and  _485
REMARK  201  A    between atoms: _490  and  _492
REMARK  202  A    between atoms: _492  and  _493
REMARK  203  A    between atoms: _492  and  _495
REMARK  204  A    between atoms: _495  and  _496
REMARK  205  A    between atoms: _499  and  _501
REMARK  206  A    between atoms: _501  and  _502
REMARK  207  A    between atoms: _501  and  _504
REMARK  208  A    between atoms: _504  and  _505
REMARK  209  A    between atoms: _508  and  _510
REMARK  210  A    between atoms: _510  and  _511
REMARK  211  A    between atoms: _513  and  _515
REMARK  212  A    between atoms: _515  and  _516
REMARK  213  A    between atoms: _515  and  _518
REMARK  214  A    between atoms: _518  and  _519
REMARK  215  A    between atoms: _519  and  _520
REMARK  216  A    between atoms: _520  and  _521
REMARK  217  A    between atoms: _530  and  _532
REMARK  218  A    between atoms: _532  and  _533
REMARK  219  A    between atoms: _532  and  _535
REMARK  220  A    between atoms: _535  and  _536
REMARK                            x       y       z     vdW  Elec       q    Type
REMARK                         _______ _______ _______ _____ _____    ______ ____
ROOT
ATOM      1  O   HOH     1       2.226 -17.809 -18.162  0.00  0.00    +0.000 OA
ENDROOT
TORSDOF 0
REMARK  Name = ../refined-set-2016/4hdf/4hdf_pocket.pdb
REMARK  220 active torsions:
REMARK  status: ('A' for Active; 'I' for Inactive)
REMARK    1  A    between atoms: _1  and  _3
REMARK    2  A    between atoms: _3  and  _4
REMARK    3  A    between atoms: _3  and  _6
REMARK    4  A    between atoms: _6  and  _7
REMARK    5  A    between atoms: _7  and  _8
REMARK    6  A    between atoms: _8  and  _9
REMARK    7  A    between atoms: _18  and  _20
REMARK    8  A    between atoms: _20  and  _21
REMARK    9  A    between atoms: _20  and  _23
REMARK   10  A    between atoms: _23  and  _24
REMARK   11  A    between atoms: _27  and  _29
REMARK   12  A    between atoms: _29  and  _30
REMARK   13  A    between atoms: _29  and  _32
REMARK   14  A    between atoms: _32  and  _33
REMARK   15  A    between atoms: _36  and  _38
REMARK   16  A    between atoms: _38  and  _39
REMARK   17  A    between atoms: _38  and  _41
REMARK   18  A    between atoms: _41  and  _42
REMARK   19  A    between atoms: _45  and  _47
REMARK   20  A    between atoms: _47  and  _48
REMARK   21  A    between atoms: _47  and  _50
REMARK   22  A    between atoms: _50  and  _51
REMARK   23  A    between atoms: _54  and  _56
REMARK   24  A    between atoms: _56  and  _57
REMARK   25  A    between atoms: _59  and  _61
REMARK   26  A    between atoms: _61  and  _62
REMARK   27  A    between atoms: _65  and  _67
REMARK   28  A    between atoms: _67  and  _68
REMARK   29  A    between atoms: _67  and  _70
REMARK   30  A    between atoms: _70  and  _71
REMARK   31  A    between atoms: _74  and  _76
REMARK   32  A    between atoms: _76  and  _77
REMARK   33  A    between atoms: _76  and  _79
REMARK   34  A    between atoms: _79  and  _80
REMARK   35  A    between atoms: _83  and  _85
REMARK   36  A    between atoms: _85  and  _86
REMARK   37  A    between atoms: _85  and  _88
REMARK   38  A    between atoms: _88  and  _89
REMARK   39  A    between atoms: _92  and  _94
REMARK   40  A    between atoms: _94  and  _95
REMARK   41  A    between atoms: _94  and  _97
REMARK   42  A    between atoms: _100  and  _102
REMARK   43  A    between atoms: _102  and  _103
REMARK   44  A    between atoms: _102  and  _105
REMARK   45  A    between atoms: _105  and  _106
REMARK   46  A    between atoms: _106  and  _107
REMARK   47  A    between atoms: _107  and  _108
REMARK   48  A    between atoms: _108  and  _109
REMARK   49  A    between atoms: _113  and  _115
REMARK   50  A    between atoms: _115  and  _116
REMARK   51  A    between atoms: _115  and  _118
REMARK   52  A    between atoms: _118  and  _119
REMARK   53  A    between atoms: _119  and  _120
REMARK   54  A    between atoms: _122  and  _124
REMARK   55  A    between atoms: _124  and  _125
REMARK   56  A    between atoms: _124  and  _127
REMARK   57  A    between atoms: _127  and  _128
REMARK   58  A    between atoms: _131  and  _133
REMARK   59  A    between atoms: _133  and  _134
REMARK   60  A    between atoms: _136  and  _138
REMARK   61  A    between atoms: _138  and  _139
REMARK   62  A    between atoms: _141  and  _143
REMARK   63  A    between atoms: _143  and  _144
REMARK   64  A    between atoms: _143  and  _146
REMARK   65  A    between atoms: _146  and  _147
REMARK   66  A    between atoms: _150  and  _152
REMARK   67  A    between atoms: _152  and  _153
REMARK   68  A    between atoms: _155  and  _157
REMARK   69  A    between atoms: _157  and  _158
REMARK   70  A    between atoms: _160  and  _162
REMARK   71  A    between atoms: _162  and  _163
REMARK   72  A    between atoms: _162  and  _165
REMARK   73  A    between atoms: _165  and  _166
REMARK   74  A    between atoms: _172  and  _174
REMARK   75  A    between atoms: _174  and  _175
REMARK   76  A    between atoms: _174  and  _177
REMARK   77  A    between atoms: _177  and  _178
REMARK   78  A    between atoms: _181  and  _183
REMARK   79  A    between atoms: _183  and  _184
REMARK   80  A    between atoms: _183  and  _186
REMARK   81  A    between atoms: _186  and  _187
REMARK   82  A    between atoms: _190  and  _192
REMARK   83  A    between atoms: _192  and  _193
REMARK   84  A    between atoms: _192  and  _195
REMARK   85  A    between atoms: _195  and  _196
REMARK   86  A    between atoms: _200  and  _201
REMARK   87  A    between atoms: _206  and  _208
REMARK   88  A    between atoms: _208  and  _209
REMARK   89  A    between atoms: _212  and  _214
REMARK   90  A    between atoms: _214  and  _215
REMARK   91  A    between atoms: _214  and  _217
REMARK   92  A    between atoms: _217  and  _218
REMARK   93  A    between atoms: _223  and  _225
REMARK   94  A    between atoms: _225  and  _226
REMARK   95  A    between atoms: _225  and  _228
REMARK   96  A    between atoms: _228  and  _229
REMARK   97  A    between atoms: _232  and  _234
REMARK   98  A    between atoms: _234  and  _235
REMARK   99  A    between atoms: _237  and  _239
REMARK  100  A    between atoms: _239  and  _240
REMARK  101  A    between atoms: _239  and  _242
REMARK  102  A    between atoms: _242  and  _243
REMARK  103  A    between atoms: _243  and  _244
REMARK  104  A    between atoms: _244  and  _245
REMARK  105  A    between atoms: _254  and  _256
REMARK  106  A    between atoms: _256  and  _257
REMARK  107  A    between atoms: _256  and  _259
REMARK  108  A    between atoms: _259  and  _260
REMARK  109  A    between atoms: _265  and  _267
REMARK  110  A    between atoms: _267  and  _268
REMARK  111  A    between atoms: _267  and  _270
REMARK  112  A    between atoms: _270  and  _271
REMARK  113  A    between atoms: _271  and  _272
REMARK  114  A    between atoms: _272  and  _273
REMARK  115  A    between atoms: _282  and  _284
REMARK  116  A    between atoms: _284  and  _285
REMARK  117  A    between atoms: _284  and  _287
REMARK  118  A    between atoms: _287  and  _288
REMARK  119  A    between atoms: _291  and  _293
REMARK  120  A    between atoms: _293  and  _294
REMARK  121  A    between atoms: _293  and  _296
REMARK  122  A    between atoms: _296  and  _297
REMARK  123  A    between atoms: _300  and  _302
REMARK  124  A    between atoms: _302  and  _303
REMARK  125  A    between atoms: _302  and  _305
REMARK  126  A    between atoms: _305  and  _306
REMARK  127  A    between atoms: _309  and  _311
REMARK  128  A    between atoms: _311  and  _312
REMARK  129  A    between atoms: _311  and  _314
REMARK  130  A    between atoms: _314  and  _315
REMARK  131  A    between atoms: _318  and  _320
REMARK  132  A    between atoms: _320  and  _321
REMARK  133  A    between atoms: _323  and  _325
REMARK  134  A    between atoms: _325  and  _326
REMARK  135  A    between atoms: _329  and  _331
REMARK  136  A    between atoms: _331  and  _332
REMARK  137  A    between atoms: _331  and  _334
REMARK  138  A    between atoms: _334  and  _335
REMARK  139  A    between atoms: _338  and  _340
REMARK  140  A    between atoms: _340  and  _341
REMARK  141  A    between atoms: _340  and  _343
REMARK  142  A    between atoms: _343  and  _344
REMARK  143  A    between atoms: _347  and  _349
REMARK  144  A    between atoms: _349  and  _350
REMARK  145  A    between atoms: _349  and  _352
REMARK  146  A    between atoms: _352  and  _353
REMARK  147  A    between atoms: _356  and  _358
REMARK  148  A    between atoms: _358  and  _359
REMARK  149  A    between atoms: _358  and  _361
REMARK  150  A    between atoms: _364  and  _366
REMARK  151  A    between atoms: _366  and  _367
REMARK  152  A    between atoms: _366  and  _369
REMARK  153  A    between atoms: _369  and  _370
REMARK  154  A    between atoms: _370  and  _371
REMARK  155  A    between atoms: _371  and  _372
REMARK  156  A    between atoms: _372  and  _373
REMARK  157  A    between atoms: _377  and  _379
REMARK  158  A    between atoms: _379  and  _380
REMARK  159  A    between atoms: _379  and  _382
REMARK  160  A    between atoms: _382  and  _383
REMARK  161  A    between atoms: _383  and  _384
REMARK  162  A    between atoms: _386  and  _388
REMARK  163  A    between atoms: _388  and  _389
REMARK  164  A    between atoms: _388  and  _391
REMARK  165  A    between atoms: _391  and  _392
REMARK  166  A    between atoms: _395  and  _397
REMARK  167  A    between atoms: _397  and  _398
REMARK  168  A    between atoms: _400  and  _402
REMARK  169  A    between atoms: _402  and  _403
REMARK  170  A    between atoms: _405  and  _407
REMARK  171  A    between atoms: _407  and  _408
REMARK  172  A    between atoms: _407  and  _410
REMARK  173  A    between atoms: _410  and  _411
REMARK  174  A    between atoms: _414  and  _416
REMARK  175  A    between atoms: _416  and  _417
REMARK  176  A    between atoms: _419  and  _421
REMARK  177  A    between atoms: _421  and  _422
REMARK  178  A    between atoms: _424  and  _426
REMARK  179  A    between atoms: _426  and  _427
REMARK  180  A    between atoms: _426  and  _429
REMARK  181  A    between atoms: _429  and  _430
REMARK  182  A    between atoms: _433  and  _435
REMARK  183  A    between atoms: _435  and  _436
REMARK  184  A    between atoms: _435  and  _438
REMARK  185  A    between atoms: _441  and  _443
REMARK  186  A    between atoms: _443  and  _444
REMARK  187  A    between atoms: _443  and  _446
REMARK  188  A    between atoms: _446  and  _447
REMARK  189  A    between atoms: _451  and  _452
REMARK  190  A    between atoms: _457  and  _459
REMARK  191  A    between atoms: _459  and  _460
REMARK  192  A    between atoms: _459  and  _462
REMARK  193  A    between atoms: _462  and  _463
REMARK  194  A    between atoms: _467  and  _468
REMARK  195  A    between atoms: _473  and  _475
REMARK  196  A    between atoms: _475  and  _476
REMARK  197  A    between atoms: _479  and  _481
REMARK  198  A    between atoms: _481  and  _482
REMARK  199  A    between atoms: _481  and  _484
REMARK  200  A    between atoms: _484  and  _485
REMARK  201  A    between atoms: _490  and  _492
REMARK  202  A    between atoms: _492  and  _493
REMARK  203  A    between atoms: _492  and  _495
REMARK  204  A    between atoms: _495  and  _496
REMARK  205  A    between atoms: _499  and  _501
REMARK  206  A    between atoms: _501  and  _502
REMARK  207  A    between atoms: _501  and  _504
REMARK  208  A    between atoms: _504  and  _505
REMARK  209  A    between atoms: _508  and  _510
REMARK  210  A    between atoms: _510  and  _511
REMARK  211  A    between atoms: _513  and  _515
REMARK  212  A    between atoms: _515  and  _516
REMARK  213  A    between atoms: _515  and  _518
REMARK  214  A    between atoms: _518  and  _519
REMARK  215  A    between atoms: _519  and  _520
REMARK  216  A    between atoms: _520  and  _521
REMARK  217  A    between atoms: _530  and  _532
REMARK  218  A    between atoms: _532  and  _533
REMARK  219  A    between atoms: _532  and  _535
REMARK  220  A    between atoms: _535  and  _536
REMARK                            x       y       z     vdW  Elec       q    Type
REMARK                         _______ _______ _______ _____ _____    ______ ____
ROOT
ATOM      1  O   HOH     1       6.040 -28.165 -19.114  0.00  0.00    +0.000 OA
ENDROOT
TORSDOF 0
REMARK  Name = ../refined-set-2016/4hdf/4hdf_pocket.pdb
REMARK  220 active torsions:
REMARK  status: ('A' for Active; 'I' for Inactive)
REMARK    1  A    between atoms: _1  and  _3
REMARK    2  A    between atoms: _3  and  _4
REMARK    3  A    between atoms: _3  and  _6
REMARK    4  A    between atoms: _6  and  _7
REMARK    5  A    between atoms: _7  and  _8
REMARK    6  A    between atoms: _8  and  _9
REMARK    7  A    between atoms: _18  and  _20
REMARK    8  A    between atoms: _20  and  _21
REMARK    9  A    between atoms: _20  and  _23
REMARK   10  A    between atoms: _23  and  _24
REMARK   11  A    between atoms: _27  and  _29
REMARK   12  A    between atoms: _29  and  _30
REMARK   13  A    between atoms: _29  and  _32
REMARK   14  A    between atoms: _32  and  _33
REMARK   15  A    between atoms: _36  and  _38
REMARK   16  A    between atoms: _38  and  _39
REMARK   17  A    between atoms: _38  and  _41
REMARK   18  A    between atoms: _41  and  _42
REMARK   19  A    between atoms: _45  and  _47
REMARK   20  A    between atoms: _47  and  _48
REMARK   21  A    between atoms: _47  and  _50
REMARK   22  A    between atoms: _50  and  _51
REMARK   23  A    between atoms: _54  and  _56
REMARK   24  A    between atoms: _56  and  _57
REMARK   25  A    between atoms: _59  and  _61
REMARK   26  A    between atoms: _61  and  _62
REMARK   27  A    between atoms: _65  and  _67
REMARK   28  A    between atoms: _67  and  _68
REMARK   29  A    between atoms: _67  and  _70
REMARK   30  A    between atoms: _70  and  _71
REMARK   31  A    between atoms: _74  and  _76
REMARK   32  A    between atoms: _76  and  _77
REMARK   33  A    between atoms: _76  and  _79
REMARK   34  A    between atoms: _79  and  _80
REMARK   35  A    between atoms: _83  and  _85
REMARK   36  A    between atoms: _85  and  _86
REMARK   37  A    between atoms: _85  and  _88
REMARK   38  A    between atoms: _88  and  _89
REMARK   39  A    between atoms: _92  and  _94
REMARK   40  A    between atoms: _94  and  _95
REMARK   41  A    between atoms: _94  and  _97
REMARK   42  A    between atoms: _100  and  _102
REMARK   43  A    between atoms: _102  and  _103
REMARK   44  A    between atoms: _102  and  _105
REMARK   45  A    between atoms: _105  and  _106
REMARK   46  A    between atoms: _106  and  _107
REMARK   47  A    between atoms: _107  and  _108
REMARK   48  A    between atoms: _108  and  _109
REMARK   49  A    between atoms: _113  and  _115
REMARK   50  A    between atoms: _115  and  _116
REMARK   51  A    between atoms: _115  and  _118
REMARK   52  A    between atoms: _118  and  _119
REMARK   53  A    between atoms: _119  and  _120
REMARK   54  A    between atoms: _122  and  _124
REMARK   55  A    between atoms: _124  and  _125
REMARK   56  A    between atoms: _124  and  _127
REMARK   57  A    between atoms: _127  and  _128
REMARK   58  A    between atoms: _131  and  _133
REMARK   59  A    between atoms: _133  and  _134
REMARK   60  A    between atoms: _136  and  _138
REMARK   61  A    between atoms: _138  and  _139
REMARK   62  A    between atoms: _141  and  _143
REMARK   63  A    between atoms: _143  and  _144
REMARK   64  A    between atoms: _143  and  _146
REMARK   65  A    between atoms: _146  and  _147
REMARK   66  A    between atoms: _150  and  _152
REMARK   67  A    between atoms: _152  and  _153
REMARK   68  A    between atoms: _155  and  _157
REMARK   69  A    between atoms: _157  and  _158
REMARK   70  A    between atoms: _160  and  _162
REMARK   71  A    between atoms: _162  and  _163
REMARK   72  A    between atoms: _162  and  _165
REMARK   73  A    between atoms: _165  and  _166
REMARK   74  A    between atoms: _172  and  _174
REMARK   75  A    between atoms: _174  and  _175
REMARK   76  A    between atoms: _174  and  _177
REMARK   77  A    between atoms: _177  and  _178
REMARK   78  A    between atoms: _181  and  _183
REMARK   79  A    between atoms: _183  and  _184
REMARK   80  A    between atoms: _183  and  _186
REMARK   81  A    between atoms: _186  and  _187
REMARK   82  A    between atoms: _190  and  _192
REMARK   83  A    between atoms: _192  and  _193
REMARK   84  A    between atoms: _192  and  _195
REMARK   85  A    between atoms: _195  and  _196
REMARK   86  A    between atoms: _200  and  _201
REMARK   87  A    between atoms: _206  and  _208
REMARK   88  A    between atoms: _208  and  _209
REMARK   89  A    between atoms: _212  and  _214
REMARK   90  A    between atoms: _214  and  _215
REMARK   91  A    between atoms: _214  and  _217
REMARK   92  A    between atoms: _217  and  _218
REMARK   93  A    between atoms: _223  and  _225
REMARK   94  A    between atoms: _225  and  _226
REMARK   95  A    between atoms: _225  and  _228
REMARK   96  A    between atoms: _228  and  _229
REMARK   97  A    between atoms: _232  and  _234
REMARK   98  A    between atoms: _234  and  _235
REMARK   99  A    between atoms: _237  and  _239
REMARK  100  A    between atoms: _239  and  _240
REMARK  101  A    between atoms: _239  and  _242
REMARK  102  A    between atoms: _242  and  _243
REMARK  103  A    between atoms: _243  and  _244
REMARK  104  A    between atoms: _244  and  _245
REMARK  105  A    between atoms: _254  and  _256
REMARK  106  A    between atoms: _256  and  _257
REMARK  107  A    between atoms: _256  and  _259
REMARK  108  A    between atoms: _259  and  _260
REMARK  109  A    between atoms: _265  and  _267
REMARK  110  A    between atoms: _267  and  _268
REMARK  111  A    between atoms: _267  and  _270
REMARK  112  A    between atoms: _270  and  _271
REMARK  113  A    between atoms: _271  and  _272
REMARK  114  A    between atoms: _272  and  _273
REMARK  115  A    between atoms: _282  and  _284
REMARK  116  A    between atoms: _284  and  _285
REMARK  117  A    between atoms: _284  and  _287
REMARK  118  A    between atoms: _287  and  _288
REMARK  119  A    between atoms: _291  and  _293
REMARK  120  A    between atoms: _293  and  _294
REMARK  121  A    between atoms: _293  and  _296
REMARK  122  A    between atoms: _296  and  _297
REMARK  123  A    between atoms: _300  and  _302
REMARK  124  A    between atoms: _302  and  _303
REMARK  125  A    between atoms: _302  and  _305
REMARK  126  A    between atoms: _305  and  _306
REMARK  127  A    between atoms: _309  and  _311
REMARK  128  A    between atoms: _311  and  _312
REMARK  129  A    between atoms: _311  and  _314
REMARK  130  A    between atoms: _314  and  _315
REMARK  131  A    between atoms: _318  and  _320
REMARK  132  A    between atoms: _320  and  _321
REMARK  133  A    between atoms: _323  and  _325
REMARK  134  A    between atoms: _325  and  _326
REMARK  135  A    between atoms: _329  and  _331
REMARK  136  A    between atoms: _331  and  _332
REMARK  137  A    between atoms: _331  and  _334
REMARK  138  A    between atoms: _334  and  _335
REMARK  139  A    between atoms: _338  and  _340
REMARK  140  A    between atoms: _340  and  _341
REMARK  141  A    between atoms: _340  and  _343
REMARK  142  A    between atoms: _343  and  _344
REMARK  143  A    between atoms: _347  and  _349
REMARK  144  A    between atoms: _349  and  _350
REMARK  145  A    between atoms: _349  and  _352
REMARK  146  A    between atoms: _352  and  _353
REMARK  147  A    between atoms: _356  and  _358
REMARK  148  A    between atoms: _358  and  _359
REMARK  149  A    between atoms: _358  and  _361
REMARK  150  A    between atoms: _364  and  _366
REMARK  151  A    between atoms: _366  and  _367
REMARK  152  A    between atoms: _366  and  _369
REMARK  153  A    between atoms: _369  and  _370
REMARK  154  A    between atoms: _370  and  _371
REMARK  155  A    between atoms: _371  and  _372
REMARK  156  A    between atoms: _372  and  _373
REMARK  157  A    between atoms: _377  and  _379
REMARK  158  A    between atoms: _379  and  _380
REMARK  159  A    between atoms: _379  and  _382
REMARK  160  A    between atoms: _382  and  _383
REMARK  161  A    between atoms: _383  and  _384
REMARK  162  A    between atoms: _386  and  _388
REMARK  163  A    between atoms: _388  and  _389
REMARK  164  A    between atoms: _388  and  _391
REMARK  165  A    between atoms: _391  and  _392
REMARK  166  A    between atoms: _395  and  _397
REMARK  167  A    between atoms: _397  and  _398
REMARK  168  A    between atoms: _400  and  _402
REMARK  169  A    between atoms: _402  and  _403
REMARK  170  A    between atoms: _405  and  _407
REMARK  171  A    between atoms: _407  and  _408
REMARK  172  A    between atoms: _407  and  _410
REMARK  173  A    between atoms: _410  and  _411
REMARK  174  A    between atoms: _414  and  _416
REMARK  175  A    between atoms: _416  and  _417
REMARK  176  A    between atoms: _419  and  _421
REMARK  177  A    between atoms: _421  and  _422
REMARK  178  A    between atoms: _424  and  _426
REMARK  179  A    between atoms: _426  and  _427
REMARK  180  A    between atoms: _426  and  _429
REMARK  181  A    between atoms: _429  and  _430
REMARK  182  A    between atoms: _433  and  _435
REMARK  183  A    between atoms: _435  and  _436
REMARK  184  A    between atoms: _435  and  _438
REMARK  185  A    between atoms: _441  and  _443
REMARK  186  A    between atoms: _443  and  _444
REMARK  187  A    between atoms: _443  and  _446
REMARK  188  A    between atoms: _446  and  _447
REMARK  189  A    between atoms: _451  and  _452
REMARK  190  A    between atoms: _457  and  _459
REMARK  191  A    between atoms: _459  and  _460
REMARK  192  A    between atoms: _459  and  _462
REMARK  193  A    between atoms: _462  and  _463
REMARK  194  A    between atoms: _467  and  _468
REMARK  195  A    between atoms: _473  and  _475
REMARK  196  A    between atoms: _475  and  _476
REMARK  197  A    between atoms: _479  and  _481
REMARK  198  A    between atoms: _481  and  _482
REMARK  199  A    between atoms: _481  and  _484
REMARK  200  A    between atoms: _484  and  _485
REMARK  201  A    between atoms: _490  and  _492
REMARK  202  A    between atoms: _492  and  _493
REMARK  203  A    between atoms: _492  and  _495
REMARK  204  A    between atoms: _495  and  _496
REMARK  205  A    between atoms: _499  and  _501
REMARK  206  A    between atoms: _501  and  _502
REMARK  207  A    between atoms: _501  and  _504
REMARK  208  A    between atoms: _504  and  _505
REMARK  209  A    between atoms: _508  and  _510
REMARK  210  A    between atoms: _510  and  _511
REMARK  211  A    between atoms: _513  and  _515
REMARK  212  A    between atoms: _515  and  _516
REMARK  213  A    between atoms: _515  and  _518
REMARK  214  A    between atoms: _518  and  _519
REMARK  215  A    between atoms: _519  and  _520
REMARK  216  A    between atoms: _520  and  _521
REMARK  217  A    between atoms: _530  and  _532
REMARK  218  A    between atoms: _532  and  _533
REMARK  219  A    between atoms: _532  and  _535
REMARK  220  A    between atoms: _535  and  _536
REMARK                            x       y       z     vdW  Elec       q    Type
REMARK                         _______ _______ _______ _____ _____    ______ ____
ROOT
ATOM      1  O   HOH     1       4.488  -9.718 -15.815  0.00  0.00    +0.000 OA
ENDROOT
TORSDOF 0
REMARK  Name = ../refined-set-2016/4hdf/4hdf_pocket.pdb
REMARK  220 active torsions:
REMARK  status: ('A' for Active; 'I' for Inactive)
REMARK    1  A    between atoms: _1  and  _3
REMARK    2  A    between atoms: _3  and  _4
REMARK    3  A    between atoms: _3  and  _6
REMARK    4  A    between atoms: _6  and  _7
REMARK    5  A    between atoms: _7  and  _8
REMARK    6  A    between atoms: _8  and  _9
REMARK    7  A    between atoms: _18  and  _20
REMARK    8  A    between atoms: _20  and  _21
REMARK    9  A    between atoms: _20  and  _23
REMARK   10  A    between atoms: _23  and  _24
REMARK   11  A    between atoms: _27  and  _29
REMARK   12  A    between atoms: _29  and  _30
REMARK   13  A    between atoms: _29  and  _32
REMARK   14  A    between atoms: _32  and  _33
REMARK   15  A    between atoms: _36  and  _38
REMARK   16  A    between atoms: _38  and  _39
REMARK   17  A    between atoms: _38  and  _41
REMARK   18  A    between atoms: _41  and  _42
REMARK   19  A    between atoms: _45  and  _47
REMARK   20  A    between atoms: _47  and  _48
REMARK   21  A    between atoms: _47  and  _50
REMARK   22  A    between atoms: _50  and  _51
REMARK   23  A    between atoms: _54  and  _56
REMARK   24  A    between atoms: _56  and  _57
REMARK   25  A    between atoms: _59  and  _61
REMARK   26  A    between atoms: _61  and  _62
REMARK   27  A    between atoms: _65  and  _67
REMARK   28  A    between atoms: _67  and  _68
REMARK   29  A    between atoms: _67  and  _70
REMARK   30  A    between atoms: _70  and  _71
REMARK   31  A    between atoms: _74  and  _76
REMARK   32  A    between atoms: _76  and  _77
REMARK   33  A    between atoms: _76  and  _79
REMARK   34  A    between atoms: _79  and  _80
REMARK   35  A    between atoms: _83  and  _85
REMARK   36  A    between atoms: _85  and  _86
REMARK   37  A    between atoms: _85  and  _88
REMARK   38  A    between atoms: _88  and  _89
REMARK   39  A    between atoms: _92  and  _94
REMARK   40  A    between atoms: _94  and  _95
REMARK   41  A    between atoms: _94  and  _97
REMARK   42  A    between atoms: _100  and  _102
REMARK   43  A    between atoms: _102  and  _103
REMARK   44  A    between atoms: _102  and  _105
REMARK   45  A    between atoms: _105  and  _106
REMARK   46  A    between atoms: _106  and  _107
REMARK   47  A    between atoms: _107  and  _108
REMARK   48  A    between atoms: _108  and  _109
REMARK   49  A    between atoms: _113  and  _115
REMARK   50  A    between atoms: _115  and  _116
REMARK   51  A    between atoms: _115  and  _118
REMARK   52  A    between atoms: _118  and  _119
REMARK   53  A    between atoms: _119  and  _120
REMARK   54  A    between atoms: _122  and  _124
REMARK   55  A    between atoms: _124  and  _125
REMARK   56  A    between atoms: _124  and  _127
REMARK   57  A    between atoms: _127  and  _128
REMARK   58  A    between atoms: _131  and  _133
REMARK   59  A    between atoms: _133  and  _134
REMARK   60  A    between atoms: _136  and  _138
REMARK   61  A    between atoms: _138  and  _139
REMARK   62  A    between atoms: _141  and  _143
REMARK   63  A    between atoms: _143  and  _144
REMARK   64  A    between atoms: _143  and  _146
REMARK   65  A    between atoms: _146  and  _147
REMARK   66  A    between atoms: _150  and  _152
REMARK   67  A    between atoms: _152  and  _153
REMARK   68  A    between atoms: _155  and  _157
REMARK   69  A    between atoms: _157  and  _158
REMARK   70  A    between atoms: _160  and  _162
REMARK   71  A    between atoms: _162  and  _163
REMARK   72  A    between atoms: _162  and  _165
REMARK   73  A    between atoms: _165  and  _166
REMARK   74  A    between atoms: _172  and  _174
REMARK   75  A    between atoms: _174  and  _175
REMARK   76  A    between atoms: _174  and  _177
REMARK   77  A    between atoms: _177  and  _178
REMARK   78  A    between atoms: _181  and  _183
REMARK   79  A    between atoms: _183  and  _184
REMARK   80  A    between atoms: _183  and  _186
REMARK   81  A    between atoms: _186  and  _187
REMARK   82  A    between atoms: _190  and  _192
REMARK   83  A    between atoms: _192  and  _193
REMARK   84  A    between atoms: _192  and  _195
REMARK   85  A    between atoms: _195  and  _196
REMARK   86  A    between atoms: _200  and  _201
REMARK   87  A    between atoms: _206  and  _208
REMARK   88  A    between atoms: _208  and  _209
REMARK   89  A    between atoms: _212  and  _214
REMARK   90  A    between atoms: _214  and  _215
REMARK   91  A    between atoms: _214  and  _217
REMARK   92  A    between atoms: _217  and  _218
REMARK   93  A    between atoms: _223  and  _225
REMARK   94  A    between atoms: _225  and  _226
REMARK   95  A    between atoms: _225  and  _228
REMARK   96  A    between atoms: _228  and  _229
REMARK   97  A    between atoms: _232  and  _234
REMARK   98  A    between atoms: _234  and  _235
REMARK   99  A    between atoms: _237  and  _239
REMARK  100  A    between atoms: _239  and  _240
REMARK  101  A    between atoms: _239  and  _242
REMARK  102  A    between atoms: _242  and  _243
REMARK  103  A    between atoms: _243  and  _244
REMARK  104  A    between atoms: _244  and  _245
REMARK  105  A    between atoms: _254  and  _256
REMARK  106  A    between atoms: _256  and  _257
REMARK  107  A    between atoms: _256  and  _259
REMARK  108  A    between atoms: _259  and  _260
REMARK  109  A    between atoms: _265  and  _267
REMARK  110  A    between atoms: _267  and  _268
REMARK  111  A    between atoms: _267  and  _270
REMARK  112  A    between atoms: _270  and  _271
REMARK  113  A    between atoms: _271  and  _272
REMARK  114  A    between atoms: _272  and  _273
REMARK  115  A    between atoms: _282  and  _284
REMARK  116  A    between atoms: _284  and  _285
REMARK  117  A    between atoms: _284  and  _287
REMARK  118  A    between atoms: _287  and  _288
REMARK  119  A    between atoms: _291  and  _293
REMARK  120  A    between atoms: _293  and  _294
REMARK  121  A    between atoms: _293  and  _296
REMARK  122  A    between atoms: _296  and  _297
REMARK  123  A    between atoms: _300  and  _302
REMARK  124  A    between atoms: _302  and  _303
REMARK  125  A    between atoms: _302  and  _305
REMARK  126  A    between atoms: _305  and  _306
REMARK  127  A    between atoms: _309  and  _311
REMARK  128  A    between atoms: _311  and  _312
REMARK  129  A    between atoms: _311  and  _314
REMARK  130  A    between atoms: _314  and  _315
REMARK  131  A    between atoms: _318  and  _320
REMARK  132  A    between atoms: _320  and  _321
REMARK  133  A    between atoms: _323  and  _325
REMARK  134  A    between atoms: _325  and  _326
REMARK  135  A    between atoms: _329  and  _331
REMARK  136  A    between atoms: _331  and  _332
REMARK  137  A    between atoms: _331  and  _334
REMARK  138  A    between atoms: _334  and  _335
REMARK  139  A    between atoms: _338  and  _340
REMARK  140  A    between atoms: _340  and  _341
REMARK  141  A    between atoms: _340  and  _343
REMARK  142  A    between atoms: _343  and  _344
REMARK  143  A    between atoms: _347  and  _349
REMARK  144  A    between atoms: _349  and  _350
REMARK  145  A    between atoms: _349  and  _352
REMARK  146  A    between atoms: _352  and  _353
REMARK  147  A    between atoms: _356  and  _358
REMARK  148  A    between atoms: _358  and  _359
REMARK  149  A    between atoms: _358  and  _361
REMARK  150  A    between atoms: _364  and  _366
REMARK  151  A    between atoms: _366  and  _367
REMARK  152  A    between atoms: _366  and  _369
REMARK  153  A    between atoms: _369  and  _370
REMARK  154  A    between atoms: _370  and  _371
REMARK  155  A    between atoms: _371  and  _372
REMARK  156  A    between atoms: _372  and  _373
REMARK  157  A    between atoms: _377  and  _379
REMARK  158  A    between atoms: _379  and  _380
REMARK  159  A    between atoms: _379  and  _382
REMARK  160  A    between atoms: _382  and  _383
REMARK  161  A    between atoms: _383  and  _384
REMARK  162  A    between atoms: _386  and  _388
REMARK  163  A    between atoms: _388  and  _389
REMARK  164  A    between atoms: _388  and  _391
REMARK  165  A    between atoms: _391  and  _392
REMARK  166  A    between atoms: _395  and  _397
REMARK  167  A    between atoms: _397  and  _398
REMARK  168  A    between atoms: _400  and  _402
REMARK  169  A    between atoms: _402  and  _403
REMARK  170  A    between atoms: _405  and  _407
REMARK  171  A    between atoms: _407  and  _408
REMARK  172  A    between atoms: _407  and  _410
REMARK  173  A    between atoms: _410  and  _411
REMARK  174  A    between atoms: _414  and  _416
REMARK  175  A    between atoms: _416  and  _417
REMARK  176  A    between atoms: _419  and  _421
REMARK  177  A    between atoms: _421  and  _422
REMARK  178  A    between atoms: _424  and  _426
REMARK  179  A    between atoms: _426  and  _427
REMARK  180  A    between atoms: _426  and  _429
REMARK  181  A    between atoms: _429  and  _430
REMARK  182  A    between atoms: _433  and  _435
REMARK  183  A    between atoms: _435  and  _436
REMARK  184  A    between atoms: _435  and  _438
REMARK  185  A    between atoms: _441  and  _443
REMARK  186  A    between atoms: _443  and  _444
REMARK  187  A    between atoms: _443  and  _446
REMARK  188  A    between atoms: _446  and  _447
REMARK  189  A    between atoms: _451  and  _452
REMARK  190  A    between atoms: _457  and  _459
REMARK  191  A    between atoms: _459  and  _460
REMARK  192  A    between atoms: _459  and  _462
REMARK  193  A    between atoms: _462  and  _463
REMARK  194  A    between atoms: _467  and  _468
REMARK  195  A    between atoms: _473  and  _475
REMARK  196  A    between atoms: _475  and  _476
REMARK  197  A    between atoms: _479  and  _481
REMARK  198  A    between atoms: _481  and  _482
REMARK  199  A    between atoms: _481  and  _484
REMARK  200  A    between atoms: _484  and  _485
REMARK  201  A    between atoms: _490  and  _492
REMARK  202  A    between atoms: _492  and  _493
REMARK  203  A    between atoms: _492  and  _495
REMARK  204  A    between atoms: _495  and  _496
REMARK  205  A    between atoms: _499  and  _501
REMARK  206  A    between atoms: _501  and  _502
REMARK  207  A    between atoms: _501  and  _504
REMARK  208  A    between atoms: _504  and  _505
REMARK  209  A    between atoms: _508  and  _510
REMARK  210  A    between atoms: _510  and  _511
REMARK  211  A    between atoms: _513  and  _515
REMARK  212  A    between atoms: _515  and  _516
REMARK  213  A    between atoms: _515  and  _518
REMARK  214  A    between atoms: _518  and  _519
REMARK  215  A    between atoms: _519  and  _520
REMARK  216  A    between atoms: _520  and  _521
REMARK  217  A    between atoms: _530  and  _532
REMARK  218  A    between atoms: _532  and  _533
REMARK  219  A    between atoms: _532  and  _535
REMARK  220  A    between atoms: _535  and  _536
REMARK                            x       y       z     vdW  Elec       q    Type
REMARK                         _______ _______ _______ _____ _____    ______ ____
ROOT
ATOM      1  O   HOH     1       3.937 -12.789 -17.341  0.00  0.00    +0.000 OA
ENDROOT
TORSDOF 0
REMARK  Name = ../refined-set-2016/4hdf/4hdf_pocket.pdb
REMARK  220 active torsions:
REMARK  status: ('A' for Active; 'I' for Inactive)
REMARK    1  A    between atoms: _1  and  _3
REMARK    2  A    between atoms: _3  and  _4
REMARK    3  A    between atoms: _3  and  _6
REMARK    4  A    between atoms: _6  and  _7
REMARK    5  A    between atoms: _7  and  _8
REMARK    6  A    between atoms: _8  and  _9
REMARK    7  A    between atoms: _18  and  _20
REMARK    8  A    between atoms: _20  and  _21
REMARK    9  A    between atoms: _20  and  _23
REMARK   10  A    between atoms: _23  and  _24
REMARK   11  A    between atoms: _27  and  _29
REMARK   12  A    between atoms: _29  and  _30
REMARK   13  A    between atoms: _29  and  _32
REMARK   14  A    between atoms: _32  and  _33
REMARK   15  A    between atoms: _36  and  _38
REMARK   16  A    between atoms: _38  and  _39
REMARK   17  A    between atoms: _38  and  _41
REMARK   18  A    between atoms: _41  and  _42
REMARK   19  A    between atoms: _45  and  _47
REMARK   20  A    between atoms: _47  and  _48
REMARK   21  A    between atoms: _47  and  _50
REMARK   22  A    between atoms: _50  and  _51
REMARK   23  A    between atoms: _54  and  _56
REMARK   24  A    between atoms: _56  and  _57
REMARK   25  A    between atoms: _59  and  _61
REMARK   26  A    between atoms: _61  and  _62
REMARK   27  A    between atoms: _65  and  _67
REMARK   28  A    between atoms: _67  and  _68
REMARK   29  A    between atoms: _67  and  _70
REMARK   30  A    between atoms: _70  and  _71
REMARK   31  A    between atoms: _74  and  _76
REMARK   32  A    between atoms: _76  and  _77
REMARK   33  A    between atoms: _76  and  _79
REMARK   34  A    between atoms: _79  and  _80
REMARK   35  A    between atoms: _83  and  _85
REMARK   36  A    between atoms: _85  and  _86
REMARK   37  A    between atoms: _85  and  _88
REMARK   38  A    between atoms: _88  and  _89
REMARK   39  A    between atoms: _92  and  _94
REMARK   40  A    between atoms: _94  and  _95
REMARK   41  A    between atoms: _94  and  _97
REMARK   42  A    between atoms: _100  and  _102
REMARK   43  A    between atoms: _102  and  _103
REMARK   44  A    between atoms: _102  and  _105
REMARK   45  A    between atoms: _105  and  _106
REMARK   46  A    between atoms: _106  and  _107
REMARK   47  A    between atoms: _107  and  _108
REMARK   48  A    between atoms: _108  and  _109
REMARK   49  A    between atoms: _113  and  _115
REMARK   50  A    between atoms: _115  and  _116
REMARK   51  A    between atoms: _115  and  _118
REMARK   52  A    between atoms: _118  and  _119
REMARK   53  A    between atoms: _119  and  _120
REMARK   54  A    between atoms: _122  and  _124
REMARK   55  A    between atoms: _124  and  _125
REMARK   56  A    between atoms: _124  and  _127
REMARK   57  A    between atoms: _127  and  _128
REMARK   58  A    between atoms: _131  and  _133
REMARK   59  A    between atoms: _133  and  _134
REMARK   60  A    between atoms: _136  and  _138
REMARK   61  A    between atoms: _138  and  _139
REMARK   62  A    between atoms: _141  and  _143
REMARK   63  A    between atoms: _143  and  _144
REMARK   64  A    between atoms: _143  and  _146
REMARK   65  A    between atoms: _146  and  _147
REMARK   66  A    between atoms: _150  and  _152
REMARK   67  A    between atoms: _152  and  _153
REMARK   68  A    between atoms: _155  and  _157
REMARK   69  A    between atoms: _157  and  _158
REMARK   70  A    between atoms: _160  and  _162
REMARK   71  A    between atoms: _162  and  _163
REMARK   72  A    between atoms: _162  and  _165
REMARK   73  A    between atoms: _165  and  _166
REMARK   74  A    between atoms: _172  and  _174
REMARK   75  A    between atoms: _174  and  _175
REMARK   76  A    between atoms: _174  and  _177
REMARK   77  A    between atoms: _177  and  _178
REMARK   78  A    between atoms: _181  and  _183
REMARK   79  A    between atoms: _183  and  _184
REMARK   80  A    between atoms: _183  and  _186
REMARK   81  A    between atoms: _186  and  _187
REMARK   82  A    between atoms: _190  and  _192
REMARK   83  A    between atoms: _192  and  _193
REMARK   84  A    between atoms: _192  and  _195
REMARK   85  A    between atoms: _195  and  _196
REMARK   86  A    between atoms: _200  and  _201
REMARK   87  A    between atoms: _206  and  _208
REMARK   88  A    between atoms: _208  and  _209
REMARK   89  A    between atoms: _212  and  _214
REMARK   90  A    between atoms: _214  and  _215
REMARK   91  A    between atoms: _214  and  _217
REMARK   92  A    between atoms: _217  and  _218
REMARK   93  A    between atoms: _223  and  _225
REMARK   94  A    between atoms: _225  and  _226
REMARK   95  A    between atoms: _225  and  _228
REMARK   96  A    between atoms: _228  and  _229
REMARK   97  A    between atoms: _232  and  _234
REMARK   98  A    between atoms: _234  and  _235
REMARK   99  A    between atoms: _237  and  _239
REMARK  100  A    between atoms: _239  and  _240
REMARK  101  A    between atoms: _239  and  _242
REMARK  102  A    between atoms: _242  and  _243
REMARK  103  A    between atoms: _243  and  _244
REMARK  104  A    between atoms: _244  and  _245
REMARK  105  A    between atoms: _254  and  _256
REMARK  106  A    between atoms: _256  and  _257
REMARK  107  A    between atoms: _256  and  _259
REMARK  108  A    between atoms: _259  and  _260
REMARK  109  A    between atoms: _265  and  _267
REMARK  110  A    between atoms: _267  and  _268
REMARK  111  A    between atoms: _267  and  _270
REMARK  112  A    between atoms: _270  and  _271
REMARK  113  A    between atoms: _271  and  _272
REMARK  114  A    between atoms: _272  and  _273
REMARK  115  A    between atoms: _282  and  _284
REMARK  116  A    between atoms: _284  and  _285
REMARK  117  A    between atoms: _284  and  _287
REMARK  118  A    between atoms: _287  and  _288
REMARK  119  A    between atoms: _291  and  _293
REMARK  120  A    between atoms: _293  and  _294
REMARK  121  A    between atoms: _293  and  _296
REMARK  122  A    between atoms: _296  and  _297
REMARK  123  A    between atoms: _300  and  _302
REMARK  124  A    between atoms: _302  and  _303
REMARK  125  A    between atoms: _302  and  _305
REMARK  126  A    between atoms: _305  and  _306
REMARK  127  A    between atoms: _309  and  _311
REMARK  128  A    between atoms: _311  and  _312
REMARK  129  A    between atoms: _311  and  _314
REMARK  130  A    between atoms: _314  and  _315
REMARK  131  A    between atoms: _318  and  _320
REMARK  132  A    between atoms: _320  and  _321
REMARK  133  A    between atoms: _323  and  _325
REMARK  134  A    between atoms: _325  and  _326
REMARK  135  A    between atoms: _329  and  _331
REMARK  136  A    between atoms: _331  and  _332
REMARK  137  A    between atoms: _331  and  _334
REMARK  138  A    between atoms: _334  and  _335
REMARK  139  A    between atoms: _338  and  _340
REMARK  140  A    between atoms: _340  and  _341
REMARK  141  A    between atoms: _340  and  _343
REMARK  142  A    between atoms: _343  and  _344
REMARK  143  A    between atoms: _347  and  _349
REMARK  144  A    between atoms: _349  and  _350
REMARK  145  A    between atoms: _349  and  _352
REMARK  146  A    between atoms: _352  and  _353
REMARK  147  A    between atoms: _356  and  _358
REMARK  148  A    between atoms: _358  and  _359
REMARK  149  A    between atoms: _358  and  _361
REMARK  150  A    between atoms: _364  and  _366
REMARK  151  A    between atoms: _366  and  _367
REMARK  152  A    between atoms: _366  and  _369
REMARK  153  A    between atoms: _369  and  _370
REMARK  154  A    between atoms: _370  and  _371
REMARK  155  A    between atoms: _371  and  _372
REMARK  156  A    between atoms: _372  and  _373
REMARK  157  A    between atoms: _377  and  _379
REMARK  158  A    between atoms: _379  and  _380
REMARK  159  A    between atoms: _379  and  _382
REMARK  160  A    between atoms: _382  and  _383
REMARK  161  A    between atoms: _383  and  _384
REMARK  162  A    between atoms: _386  and  _388
REMARK  163  A    between atoms: _388  and  _389
REMARK  164  A    between atoms: _388  and  _391
REMARK  165  A    between atoms: _391  and  _392
REMARK  166  A    between atoms: _395  and  _397
REMARK  167  A    between atoms: _397  and  _398
REMARK  168  A    between atoms: _400  and  _402
REMARK  169  A    between atoms: _402  and  _403
REMARK  170  A    between atoms: _405  and  _407
REMARK  171  A    between atoms: _407  and  _408
REMARK  172  A    between atoms: _407  and  _410
REMARK  173  A    between atoms: _410  and  _411
REMARK  174  A    between atoms: _414  and  _416
REMARK  175  A    between atoms: _416  and  _417
REMARK  176  A    between atoms: _419  and  _421
REMARK  177  A    between atoms: _421  and  _422
REMARK  178  A    between atoms: _424  and  _426
REMARK  179  A    between atoms: _426  and  _427
REMARK  180  A    between atoms: _426  and  _429
REMARK  181  A    between atoms: _429  and  _430
REMARK  182  A    between atoms: _433  and  _435
REMARK  183  A    between atoms: _435  and  _436
REMARK  184  A    between atoms: _435  and  _438
REMARK  185  A    between atoms: _441  and  _443
REMARK  186  A    between atoms: _443  and  _444
REMARK  187  A    between atoms: _443  and  _446
REMARK  188  A    between atoms: _446  and  _447
REMARK  189  A    between atoms: _451  and  _452
REMARK  190  A    between atoms: _457  and  _459
REMARK  191  A    between atoms: _459  and  _460
REMARK  192  A    between atoms: _459  and  _462
REMARK  193  A    between atoms: _462  and  _463
REMARK  194  A    between atoms: _467  and  _468
REMARK  195  A    between atoms: _473  and  _475
REMARK  196  A    between atoms: _475  and  _476
REMARK  197  A    between atoms: _479  and  _481
REMARK  198  A    between atoms: _481  and  _482
REMARK  199  A    between atoms: _481  and  _484
REMARK  200  A    between atoms: _484  and  _485
REMARK  201  A    between atoms: _490  and  _492
REMARK  202  A    between atoms: _492  and  _493
REMARK  203  A    between atoms: _492  and  _495
REMARK  204  A    between atoms: _495  and  _496
REMARK  205  A    between atoms: _499  and  _501
REMARK  206  A    between atoms: _501  and  _502
REMARK  207  A    between atoms: _501  and  _504
REMARK  208  A    between atoms: _504  and  _505
REMARK  209  A    between atoms: _508  and  _510
REMARK  210  A    between atoms: _510  and  _511
REMARK  211  A    between atoms: _513  and  _515
REMARK  212  A    between atoms: _515  and  _516
REMARK  213  A    between atoms: _515  and  _518
REMARK  214  A    between atoms: _518  and  _519
REMARK  215  A    between atoms: _519  and  _520
REMARK  216  A    between atoms: _520  and  _521
REMARK  217  A    between atoms: _530  and  _532
REMARK  218  A    between atoms: _532  and  _533
REMARK  219  A    between atoms: _532  and  _535
REMARK  220  A    between atoms: _535  and  _536
REMARK                            x       y       z     vdW  Elec       q    Type
REMARK                         _______ _______ _______ _____ _____    ______ ____
ROOT
ATOM      1  O   HOH     1       4.569 -21.767 -18.592  0.00  0.00    +0.000 OA
ENDROOT
TORSDOF 0
REMARK  Name = ../refined-set-2016/4hdf/4hdf_pocket.pdb
REMARK  220 active torsions:
REMARK  status: ('A' for Active; 'I' for Inactive)
REMARK    1  A    between atoms: _1  and  _3
REMARK    2  A    between atoms: _3  and  _4
REMARK    3  A    between atoms: _3  and  _6
REMARK    4  A    between atoms: _6  and  _7
REMARK    5  A    between atoms: _7  and  _8
REMARK    6  A    between atoms: _8  and  _9
REMARK    7  A    between atoms: _18  and  _20
REMARK    8  A    between atoms: _20  and  _21
REMARK    9  A    between atoms: _20  and  _23
REMARK   10  A    between atoms: _23  and  _24
REMARK   11  A    between atoms: _27  and  _29
REMARK   12  A    between atoms: _29  and  _30
REMARK   13  A    between atoms: _29  and  _32
REMARK   14  A    between atoms: _32  and  _33
REMARK   15  A    between atoms: _36  and  _38
REMARK   16  A    between atoms: _38  and  _39
REMARK   17  A    between atoms: _38  and  _41
REMARK   18  A    between atoms: _41  and  _42
REMARK   19  A    between atoms: _45  and  _47
REMARK   20  A    between atoms: _47  and  _48
REMARK   21  A    between atoms: _47  and  _50
REMARK   22  A    between atoms: _50  and  _51
REMARK   23  A    between atoms: _54  and  _56
REMARK   24  A    between atoms: _56  and  _57
REMARK   25  A    between atoms: _59  and  _61
REMARK   26  A    between atoms: _61  and  _62
REMARK   27  A    between atoms: _65  and  _67
REMARK   28  A    between atoms: _67  and  _68
REMARK   29  A    between atoms: _67  and  _70
REMARK   30  A    between atoms: _70  and  _71
REMARK   31  A    between atoms: _74  and  _76
REMARK   32  A    between atoms: _76  and  _77
REMARK   33  A    between atoms: _76  and  _79
REMARK   34  A    between atoms: _79  and  _80
REMARK   35  A    between atoms: _83  and  _85
REMARK   36  A    between atoms: _85  and  _86
REMARK   37  A    between atoms: _85  and  _88
REMARK   38  A    between atoms: _88  and  _89
REMARK   39  A    between atoms: _92  and  _94
REMARK   40  A    between atoms: _94  and  _95
REMARK   41  A    between atoms: _94  and  _97
REMARK   42  A    between atoms: _100  and  _102
REMARK   43  A    between atoms: _102  and  _103
REMARK   44  A    between atoms: _102  and  _105
REMARK   45  A    between atoms: _105  and  _106
REMARK   46  A    between atoms: _106  and  _107
REMARK   47  A    between atoms: _107  and  _108
REMARK   48  A    between atoms: _108  and  _109
REMARK   49  A    between atoms: _113  and  _115
REMARK   50  A    between atoms: _115  and  _116
REMARK   51  A    between atoms: _115  and  _118
REMARK   52  A    between atoms: _118  and  _119
REMARK   53  A    between atoms: _119  and  _120
REMARK   54  A    between atoms: _122  and  _124
REMARK   55  A    between atoms: _124  and  _125
REMARK   56  A    between atoms: _124  and  _127
REMARK   57  A    between atoms: _127  and  _128
REMARK   58  A    between atoms: _131  and  _133
REMARK   59  A    between atoms: _133  and  _134
REMARK   60  A    between atoms: _136  and  _138
REMARK   61  A    between atoms: _138  and  _139
REMARK   62  A    between atoms: _141  and  _143
REMARK   63  A    between atoms: _143  and  _144
REMARK   64  A    between atoms: _143  and  _146
REMARK   65  A    between atoms: _146  and  _147
REMARK   66  A    between atoms: _150  and  _152
REMARK   67  A    between atoms: _152  and  _153
REMARK   68  A    between atoms: _155  and  _157
REMARK   69  A    between atoms: _157  and  _158
REMARK   70  A    between atoms: _160  and  _162
REMARK   71  A    between atoms: _162  and  _163
REMARK   72  A    between atoms: _162  and  _165
REMARK   73  A    between atoms: _165  and  _166
REMARK   74  A    between atoms: _172  and  _174
REMARK   75  A    between atoms: _174  and  _175
REMARK   76  A    between atoms: _174  and  _177
REMARK   77  A    between atoms: _177  and  _178
REMARK   78  A    between atoms: _181  and  _183
REMARK   79  A    between atoms: _183  and  _184
REMARK   80  A    between atoms: _183  and  _186
REMARK   81  A    between atoms: _186  and  _187
REMARK   82  A    between atoms: _190  and  _192
REMARK   83  A    between atoms: _192  and  _193
REMARK   84  A    between atoms: _192  and  _195
REMARK   85  A    between atoms: _195  and  _196
REMARK   86  A    between atoms: _200  and  _201
REMARK   87  A    between atoms: _206  and  _208
REMARK   88  A    between atoms: _208  and  _209
REMARK   89  A    between atoms: _212  and  _214
REMARK   90  A    between atoms: _214  and  _215
REMARK   91  A    between atoms: _214  and  _217
REMARK   92  A    between atoms: _217  and  _218
REMARK   93  A    between atoms: _223  and  _225
REMARK   94  A    between atoms: _225  and  _226
REMARK   95  A    between atoms: _225  and  _228
REMARK   96  A    between atoms: _228  and  _229
REMARK   97  A    between atoms: _232  and  _234
REMARK   98  A    between atoms: _234  and  _235
REMARK   99  A    between atoms: _237  and  _239
REMARK  100  A    between atoms: _239  and  _240
REMARK  101  A    between atoms: _239  and  _242
REMARK  102  A    between atoms: _242  and  _243
REMARK  103  A    between atoms: _243  and  _244
REMARK  104  A    between atoms: _244  and  _245
REMARK  105  A    between atoms: _254  and  _256
REMARK  106  A    between atoms: _256  and  _257
REMARK  107  A    between atoms: _256  and  _259
REMARK  108  A    between atoms: _259  and  _260
REMARK  109  A    between atoms: _265  and  _267
REMARK  110  A    between atoms: _267  and  _268
REMARK  111  A    between atoms: _267  and  _270
REMARK  112  A    between atoms: _270  and  _271
REMARK  113  A    between atoms: _271  and  _272
REMARK  114  A    between atoms: _272  and  _273
REMARK  115  A    between atoms: _282  and  _284
REMARK  116  A    between atoms: _284  and  _285
REMARK  117  A    between atoms: _284  and  _287
REMARK  118  A    between atoms: _287  and  _288
REMARK  119  A    between atoms: _291  and  _293
REMARK  120  A    between atoms: _293  and  _294
REMARK  121  A    between atoms: _293  and  _296
REMARK  122  A    between atoms: _296  and  _297
REMARK  123  A    between atoms: _300  and  _302
REMARK  124  A    between atoms: _302  and  _303
REMARK  125  A    between atoms: _302  and  _305
REMARK  126  A    between atoms: _305  and  _306
REMARK  127  A    between atoms: _309  and  _311
REMARK  128  A    between atoms: _311  and  _312
REMARK  129  A    between atoms: _311  and  _314
REMARK  130  A    between atoms: _314  and  _315
REMARK  131  A    between atoms: _318  and  _320
REMARK  132  A    between atoms: _320  and  _321
REMARK  133  A    between atoms: _323  and  _325
REMARK  134  A    between atoms: _325  and  _326
REMARK  135  A    between atoms: _329  and  _331
REMARK  136  A    between atoms: _331  and  _332
REMARK  137  A    between atoms: _331  and  _334
REMARK  138  A    between atoms: _334  and  _335
REMARK  139  A    between atoms: _338  and  _340
REMARK  140  A    between atoms: _340  and  _341
REMARK  141  A    between atoms: _340  and  _343
REMARK  142  A    between atoms: _343  and  _344
REMARK  143  A    between atoms: _347  and  _349
REMARK  144  A    between atoms: _349  and  _350
REMARK  145  A    between atoms: _349  and  _352
REMARK  146  A    between atoms: _352  and  _353
REMARK  147  A    between atoms: _356  and  _358
REMARK  148  A    between atoms: _358  and  _359
REMARK  149  A    between atoms: _358  and  _361
REMARK  150  A    between atoms: _364  and  _366
REMARK  151  A    between atoms: _366  and  _367
REMARK  152  A    between atoms: _366  and  _369
REMARK  153  A    between atoms: _369  and  _370
REMARK  154  A    between atoms: _370  and  _371
REMARK  155  A    between atoms: _371  and  _372
REMARK  156  A    between atoms: _372  and  _373
REMARK  157  A    between atoms: _377  and  _379
REMARK  158  A    between atoms: _379  and  _380
REMARK  159  A    between atoms: _379  and  _382
REMARK  160  A    between atoms: _382  and  _383
REMARK  161  A    between atoms: _383  and  _384
REMARK  162  A    between atoms: _386  and  _388
REMARK  163  A    between atoms: _388  and  _389
REMARK  164  A    between atoms: _388  and  _391
REMARK  165  A    between atoms: _391  and  _392
REMARK  166  A    between atoms: _395  and  _397
REMARK  167  A    between atoms: _397  and  _398
REMARK  168  A    between atoms: _400  and  _402
REMARK  169  A    between atoms: _402  and  _403
REMARK  170  A    between atoms: _405  and  _407
REMARK  171  A    between atoms: _407  and  _408
REMARK  172  A    between atoms: _407  and  _410
REMARK  173  A    between atoms: _410  and  _411
REMARK  174  A    between atoms: _414  and  _416
REMARK  175  A    between atoms: _416  and  _417
REMARK  176  A    between atoms: _419  and  _421
REMARK  177  A    between atoms: _421  and  _422
REMARK  178  A    between atoms: _424  and  _426
REMARK  179  A    between atoms: _426  and  _427
REMARK  180  A    between atoms: _426  and  _429
REMARK  181  A    between atoms: _429  and  _430
REMARK  182  A    between atoms: _433  and  _435
REMARK  183  A    between atoms: _435  and  _436
REMARK  184  A    between atoms: _435  and  _438
REMARK  185  A    between atoms: _441  and  _443
REMARK  186  A    between atoms: _443  and  _444
REMARK  187  A    between atoms: _443  and  _446
REMARK  188  A    between atoms: _446  and  _447
REMARK  189  A    between atoms: _451  and  _452
REMARK  190  A    between atoms: _457  and  _459
REMARK  191  A    between atoms: _459  and  _460
REMARK  192  A    between atoms: _459  and  _462
REMARK  193  A    between atoms: _462  and  _463
REMARK  194  A    between atoms: _467  and  _468
REMARK  195  A    between atoms: _473  and  _475
REMARK  196  A    between atoms: _475  and  _476
REMARK  197  A    between atoms: _479  and  _481
REMARK  198  A    between atoms: _481  and  _482
REMARK  199  A    between atoms: _481  and  _484
REMARK  200  A    between atoms: _484  and  _485
REMARK  201  A    between atoms: _490  and  _492
REMARK  202  A    between atoms: _492  and  _493
REMARK  203  A    between atoms: _492  and  _495
REMARK  204  A    between atoms: _495  and  _496
REMARK  205  A    between atoms: _499  and  _501
REMARK  206  A    between atoms: _501  and  _502
REMARK  207  A    between atoms: _501  and  _504
REMARK  208  A    between atoms: _504  and  _505
REMARK  209  A    between atoms: _508  and  _510
REMARK  210  A    between atoms: _510  and  _511
REMARK  211  A    between atoms: _513  and  _515
REMARK  212  A    between atoms: _515  and  _516
REMARK  213  A    between atoms: _515  and  _518
REMARK  214  A    between atoms: _518  and  _519
REMARK  215  A    between atoms: _519  and  _520
REMARK  216  A    between atoms: _520  and  _521
REMARK  217  A    between atoms: _530  and  _532
REMARK  218  A    between atoms: _532  and  _533
REMARK  219  A    between atoms: _532  and  _535
REMARK  220  A    between atoms: _535  and  _536
REMARK                            x       y       z     vdW  Elec       q    Type
REMARK                         _______ _______ _______ _____ _____    ______ ____
ROOT
ATOM      1  O   HOH     1       3.830 -19.703 -19.844  0.00  0.00    +0.000 OA
ENDROOT
TORSDOF 0
REMARK  Name = ../refined-set-2016/4hdf/4hdf_pocket.pdb
REMARK  220 active torsions:
REMARK  status: ('A' for Active; 'I' for Inactive)
REMARK    1  A    between atoms: _1  and  _3
REMARK    2  A    between atoms: _3  and  _4
REMARK    3  A    between atoms: _3  and  _6
REMARK    4  A    between atoms: _6  and  _7
REMARK    5  A    between atoms: _7  and  _8
REMARK    6  A    between atoms: _8  and  _9
REMARK    7  A    between atoms: _18  and  _20
REMARK    8  A    between atoms: _20  and  _21
REMARK    9  A    between atoms: _20  and  _23
REMARK   10  A    between atoms: _23  and  _24
REMARK   11  A    between atoms: _27  and  _29
REMARK   12  A    between atoms: _29  and  _30
REMARK   13  A    between atoms: _29  and  _32
REMARK   14  A    between atoms: _32  and  _33
REMARK   15  A    between atoms: _36  and  _38
REMARK   16  A    between atoms: _38  and  _39
REMARK   17  A    between atoms: _38  and  _41
REMARK   18  A    between atoms: _41  and  _42
REMARK   19  A    between atoms: _45  and  _47
REMARK   20  A    between atoms: _47  and  _48
REMARK   21  A    between atoms: _47  and  _50
REMARK   22  A    between atoms: _50  and  _51
REMARK   23  A    between atoms: _54  and  _56
REMARK   24  A    between atoms: _56  and  _57
REMARK   25  A    between atoms: _59  and  _61
REMARK   26  A    between atoms: _61  and  _62
REMARK   27  A    between atoms: _65  and  _67
REMARK   28  A    between atoms: _67  and  _68
REMARK   29  A    between atoms: _67  and  _70
REMARK   30  A    between atoms: _70  and  _71
REMARK   31  A    between atoms: _74  and  _76
REMARK   32  A    between atoms: _76  and  _77
REMARK   33  A    between atoms: _76  and  _79
REMARK   34  A    between atoms: _79  and  _80
REMARK   35  A    between atoms: _83  and  _85
REMARK   36  A    between atoms: _85  and  _86
REMARK   37  A    between atoms: _85  and  _88
REMARK   38  A    between atoms: _88  and  _89
REMARK   39  A    between atoms: _92  and  _94
REMARK   40  A    between atoms: _94  and  _95
REMARK   41  A    between atoms: _94  and  _97
REMARK   42  A    between atoms: _100  and  _102
REMARK   43  A    between atoms: _102  and  _103
REMARK   44  A    between atoms: _102  and  _105
REMARK   45  A    between atoms: _105  and  _106
REMARK   46  A    between atoms: _106  and  _107
REMARK   47  A    between atoms: _107  and  _108
REMARK   48  A    between atoms: _108  and  _109
REMARK   49  A    between atoms: _113  and  _115
REMARK   50  A    between atoms: _115  and  _116
REMARK   51  A    between atoms: _115  and  _118
REMARK   52  A    between atoms: _118  and  _119
REMARK   53  A    between atoms: _119  and  _120
REMARK   54  A    between atoms: _122  and  _124
REMARK   55  A    between atoms: _124  and  _125
REMARK   56  A    between atoms: _124  and  _127
REMARK   57  A    between atoms: _127  and  _128
REMARK   58  A    between atoms: _131  and  _133
REMARK   59  A    between atoms: _133  and  _134
REMARK   60  A    between atoms: _136  and  _138
REMARK   61  A    between atoms: _138  and  _139
REMARK   62  A    between atoms: _141  and  _143
REMARK   63  A    between atoms: _143  and  _144
REMARK   64  A    between atoms: _143  and  _146
REMARK   65  A    between atoms: _146  and  _147
REMARK   66  A    between atoms: _150  and  _152
REMARK   67  A    between atoms: _152  and  _153
REMARK   68  A    between atoms: _155  and  _157
REMARK   69  A    between atoms: _157  and  _158
REMARK   70  A    between atoms: _160  and  _162
REMARK   71  A    between atoms: _162  and  _163
REMARK   72  A    between atoms: _162  and  _165
REMARK   73  A    between atoms: _165  and  _166
REMARK   74  A    between atoms: _172  and  _174
REMARK   75  A    between atoms: _174  and  _175
REMARK   76  A    between atoms: _174  and  _177
REMARK   77  A    between atoms: _177  and  _178
REMARK   78  A    between atoms: _181  and  _183
REMARK   79  A    between atoms: _183  and  _184
REMARK   80  A    between atoms: _183  and  _186
REMARK   81  A    between atoms: _186  and  _187
REMARK   82  A    between atoms: _190  and  _192
REMARK   83  A    between atoms: _192  and  _193
REMARK   84  A    between atoms: _192  and  _195
REMARK   85  A    between atoms: _195  and  _196
REMARK   86  A    between atoms: _200  and  _201
REMARK   87  A    between atoms: _206  and  _208
REMARK   88  A    between atoms: _208  and  _209
REMARK   89  A    between atoms: _212  and  _214
REMARK   90  A    between atoms: _214  and  _215
REMARK   91  A    between atoms: _214  and  _217
REMARK   92  A    between atoms: _217  and  _218
REMARK   93  A    between atoms: _223  and  _225
REMARK   94  A    between atoms: _225  and  _226
REMARK   95  A    between atoms: _225  and  _228
REMARK   96  A    between atoms: _228  and  _229
REMARK   97  A    between atoms: _232  and  _234
REMARK   98  A    between atoms: _234  and  _235
REMARK   99  A    between atoms: _237  and  _239
REMARK  100  A    between atoms: _239  and  _240
REMARK  101  A    between atoms: _239  and  _242
REMARK  102  A    between atoms: _242  and  _243
REMARK  103  A    between atoms: _243  and  _244
REMARK  104  A    between atoms: _244  and  _245
REMARK  105  A    between atoms: _254  and  _256
REMARK  106  A    between atoms: _256  and  _257
REMARK  107  A    between atoms: _256  and  _259
REMARK  108  A    between atoms: _259  and  _260
REMARK  109  A    between atoms: _265  and  _267
REMARK  110  A    between atoms: _267  and  _268
REMARK  111  A    between atoms: _267  and  _270
REMARK  112  A    between atoms: _270  and  _271
REMARK  113  A    between atoms: _271  and  _272
REMARK  114  A    between atoms: _272  and  _273
REMARK  115  A    between atoms: _282  and  _284
REMARK  116  A    between atoms: _284  and  _285
REMARK  117  A    between atoms: _284  and  _287
REMARK  118  A    between atoms: _287  and  _288
REMARK  119  A    between atoms: _291  and  _293
REMARK  120  A    between atoms: _293  and  _294
REMARK  121  A    between atoms: _293  and  _296
REMARK  122  A    between atoms: _296  and  _297
REMARK  123  A    between atoms: _300  and  _302
REMARK  124  A    between atoms: _302  and  _303
REMARK  125  A    between atoms: _302  and  _305
REMARK  126  A    between atoms: _305  and  _306
REMARK  127  A    between atoms: _309  and  _311
REMARK  128  A    between atoms: _311  and  _312
REMARK  129  A    between atoms: _311  and  _314
REMARK  130  A    between atoms: _314  and  _315
REMARK  131  A    between atoms: _318  and  _320
REMARK  132  A    between atoms: _320  and  _321
REMARK  133  A    between atoms: _323  and  _325
REMARK  134  A    between atoms: _325  and  _326
REMARK  135  A    between atoms: _329  and  _331
REMARK  136  A    between atoms: _331  and  _332
REMARK  137  A    between atoms: _331  and  _334
REMARK  138  A    between atoms: _334  and  _335
REMARK  139  A    between atoms: _338  and  _340
REMARK  140  A    between atoms: _340  and  _341
REMARK  141  A    between atoms: _340  and  _343
REMARK  142  A    between atoms: _343  and  _344
REMARK  143  A    between atoms: _347  and  _349
REMARK  144  A    between atoms: _349  and  _350
REMARK  145  A    between atoms: _349  and  _352
REMARK  146  A    between atoms: _352  and  _353
REMARK  147  A    between atoms: _356  and  _358
REMARK  148  A    between atoms: _358  and  _359
REMARK  149  A    between atoms: _358  and  _361
REMARK  150  A    between atoms: _364  and  _366
REMARK  151  A    between atoms: _366  and  _367
REMARK  152  A    between atoms: _366  and  _369
REMARK  153  A    between atoms: _369  and  _370
REMARK  154  A    between atoms: _370  and  _371
REMARK  155  A    between atoms: _371  and  _372
REMARK  156  A    between atoms: _372  and  _373
REMARK  157  A    between atoms: _377  and  _379
REMARK  158  A    between atoms: _379  and  _380
REMARK  159  A    between atoms: _379  and  _382
REMARK  160  A    between atoms: _382  and  _383
REMARK  161  A    between atoms: _383  and  _384
REMARK  162  A    between atoms: _386  and  _388
REMARK  163  A    between atoms: _388  and  _389
REMARK  164  A    between atoms: _388  and  _391
REMARK  165  A    between atoms: _391  and  _392
REMARK  166  A    between atoms: _395  and  _397
REMARK  167  A    between atoms: _397  and  _398
REMARK  168  A    between atoms: _400  and  _402
REMARK  169  A    between atoms: _402  and  _403
REMARK  170  A    between atoms: _405  and  _407
REMARK  171  A    between atoms: _407  and  _408
REMARK  172  A    between atoms: _407  and  _410
REMARK  173  A    between atoms: _410  and  _411
REMARK  174  A    between atoms: _414  and  _416
REMARK  175  A    between atoms: _416  and  _417
REMARK  176  A    between atoms: _419  and  _421
REMARK  177  A    between atoms: _421  and  _422
REMARK  178  A    between atoms: _424  and  _426
REMARK  179  A    between atoms: _426  and  _427
REMARK  180  A    between atoms: _426  and  _429
REMARK  181  A    between atoms: _429  and  _430
REMARK  182  A    between atoms: _433  and  _435
REMARK  183  A    between atoms: _435  and  _436
REMARK  184  A    between atoms: _435  and  _438
REMARK  185  A    between atoms: _441  and  _443
REMARK  186  A    between atoms: _443  and  _444
REMARK  187  A    between atoms: _443  and  _446
REMARK  188  A    between atoms: _446  and  _447
REMARK  189  A    between atoms: _451  and  _452
REMARK  190  A    between atoms: _457  and  _459
REMARK  191  A    between atoms: _459  and  _460
REMARK  192  A    between atoms: _459  and  _462
REMARK  193  A    between atoms: _462  and  _463
REMARK  194  A    between atoms: _467  and  _468
REMARK  195  A    between atoms: _473  and  _475
REMARK  196  A    between atoms: _475  and  _476
REMARK  197  A    between atoms: _479  and  _481
REMARK  198  A    between atoms: _481  and  _482
REMARK  199  A    between atoms: _481  and  _484
REMARK  200  A    between atoms: _484  and  _485
REMARK  201  A    between atoms: _490  and  _492
REMARK  202  A    between atoms: _492  and  _493
REMARK  203  A    between atoms: _492  and  _495
REMARK  204  A    between atoms: _495  and  _496
REMARK  205  A    between atoms: _499  and  _501
REMARK  206  A    between atoms: _501  and  _502
REMARK  207  A    between atoms: _501  and  _504
REMARK  208  A    between atoms: _504  and  _505
REMARK  209  A    between atoms: _508  and  _510
REMARK  210  A    between atoms: _510  and  _511
REMARK  211  A    between atoms: _513  and  _515
REMARK  212  A    between atoms: _515  and  _516
REMARK  213  A    between atoms: _515  and  _518
REMARK  214  A    between atoms: _518  and  _519
REMARK  215  A    between atoms: _519  and  _520
REMARK  216  A    between atoms: _520  and  _521
REMARK  217  A    between atoms: _530  and  _532
REMARK  218  A    between atoms: _532  and  _533
REMARK  219  A    between atoms: _532  and  _535
REMARK  220  A    between atoms: _535  and  _536
REMARK                            x       y       z     vdW  Elec       q    Type
REMARK                         _______ _______ _______ _____ _____    ______ ____
ROOT
ATOM      1  O   HOH     1      21.995 -19.051 -18.351  0.00  0.00    +0.000 OA
ENDROOT
TORSDOF 0
REMARK  Name = ../refined-set-2016/4hdf/4hdf_pocket.pdb
REMARK  220 active torsions:
REMARK  status: ('A' for Active; 'I' for Inactive)
REMARK    1  A    between atoms: _1  and  _3
REMARK    2  A    between atoms: _3  and  _4
REMARK    3  A    between atoms: _3  and  _6
REMARK    4  A    between atoms: _6  and  _7
REMARK    5  A    between atoms: _7  and  _8
REMARK    6  A    between atoms: _8  and  _9
REMARK    7  A    between atoms: _18  and  _20
REMARK    8  A    between atoms: _20  and  _21
REMARK    9  A    between atoms: _20  and  _23
REMARK   10  A    between atoms: _23  and  _24
REMARK   11  A    between atoms: _27  and  _29
REMARK   12  A    between atoms: _29  and  _30
REMARK   13  A    between atoms: _29  and  _32
REMARK   14  A    between atoms: _32  and  _33
REMARK   15  A    between atoms: _36  and  _38
REMARK   16  A    between atoms: _38  and  _39
REMARK   17  A    between atoms: _38  and  _41
REMARK   18  A    between atoms: _41  and  _42
REMARK   19  A    between atoms: _45  and  _47
REMARK   20  A    between atoms: _47  and  _48
REMARK   21  A    between atoms: _47  and  _50
REMARK   22  A    between atoms: _50  and  _51
REMARK   23  A    between atoms: _54  and  _56
REMARK   24  A    between atoms: _56  and  _57
REMARK   25  A    between atoms: _59  and  _61
REMARK   26  A    between atoms: _61  and  _62
REMARK   27  A    between atoms: _65  and  _67
REMARK   28  A    between atoms: _67  and  _68
REMARK   29  A    between atoms: _67  and  _70
REMARK   30  A    between atoms: _70  and  _71
REMARK   31  A    between atoms: _74  and  _76
REMARK   32  A    between atoms: _76  and  _77
REMARK   33  A    between atoms: _76  and  _79
REMARK   34  A    between atoms: _79  and  _80
REMARK   35  A    between atoms: _83  and  _85
REMARK   36  A    between atoms: _85  and  _86
REMARK   37  A    between atoms: _85  and  _88
REMARK   38  A    between atoms: _88  and  _89
REMARK   39  A    between atoms: _92  and  _94
REMARK   40  A    between atoms: _94  and  _95
REMARK   41  A    between atoms: _94  and  _97
REMARK   42  A    between atoms: _100  and  _102
REMARK   43  A    between atoms: _102  and  _103
REMARK   44  A    between atoms: _102  and  _105
REMARK   45  A    between atoms: _105  and  _106
REMARK   46  A    between atoms: _106  and  _107
REMARK   47  A    between atoms: _107  and  _108
REMARK   48  A    between atoms: _108  and  _109
REMARK   49  A    between atoms: _113  and  _115
REMARK   50  A    between atoms: _115  and  _116
REMARK   51  A    between atoms: _115  and  _118
REMARK   52  A    between atoms: _118  and  _119
REMARK   53  A    between atoms: _119  and  _120
REMARK   54  A    between atoms: _122  and  _124
REMARK   55  A    between atoms: _124  and  _125
REMARK   56  A    between atoms: _124  and  _127
REMARK   57  A    between atoms: _127  and  _128
REMARK   58  A    between atoms: _131  and  _133
REMARK   59  A    between atoms: _133  and  _134
REMARK   60  A    between atoms: _136  and  _138
REMARK   61  A    between atoms: _138  and  _139
REMARK   62  A    between atoms: _141  and  _143
REMARK   63  A    between atoms: _143  and  _144
REMARK   64  A    between atoms: _143  and  _146
REMARK   65  A    between atoms: _146  and  _147
REMARK   66  A    between atoms: _150  and  _152
REMARK   67  A    between atoms: _152  and  _153
REMARK   68  A    between atoms: _155  and  _157
REMARK   69  A    between atoms: _157  and  _158
REMARK   70  A    between atoms: _160  and  _162
REMARK   71  A    between atoms: _162  and  _163
REMARK   72  A    between atoms: _162  and  _165
REMARK   73  A    between atoms: _165  and  _166
REMARK   74  A    between atoms: _172  and  _174
REMARK   75  A    between atoms: _174  and  _175
REMARK   76  A    between atoms: _174  and  _177
REMARK   77  A    between atoms: _177  and  _178
REMARK   78  A    between atoms: _181  and  _183
REMARK   79  A    between atoms: _183  and  _184
REMARK   80  A    between atoms: _183  and  _186
REMARK   81  A    between atoms: _186  and  _187
REMARK   82  A    between atoms: _190  and  _192
REMARK   83  A    between atoms: _192  and  _193
REMARK   84  A    between atoms: _192  and  _195
REMARK   85  A    between atoms: _195  and  _196
REMARK   86  A    between atoms: _200  and  _201
REMARK   87  A    between atoms: _206  and  _208
REMARK   88  A    between atoms: _208  and  _209
REMARK   89  A    between atoms: _212  and  _214
REMARK   90  A    between atoms: _214  and  _215
REMARK   91  A    between atoms: _214  and  _217
REMARK   92  A    between atoms: _217  and  _218
REMARK   93  A    between atoms: _223  and  _225
REMARK   94  A    between atoms: _225  and  _226
REMARK   95  A    between atoms: _225  and  _228
REMARK   96  A    between atoms: _228  and  _229
REMARK   97  A    between atoms: _232  and  _234
REMARK   98  A    between atoms: _234  and  _235
REMARK   99  A    between atoms: _237  and  _239
REMARK  100  A    between atoms: _239  and  _240
REMARK  101  A    between atoms: _239  and  _242
REMARK  102  A    between atoms: _242  and  _243
REMARK  103  A    between atoms: _243  and  _244
REMARK  104  A    between atoms: _244  and  _245
REMARK  105  A    between atoms: _254  and  _256
REMARK  106  A    between atoms: _256  and  _257
REMARK  107  A    between atoms: _256  and  _259
REMARK  108  A    between atoms: _259  and  _260
REMARK  109  A    between atoms: _265  and  _267
REMARK  110  A    between atoms: _267  and  _268
REMARK  111  A    between atoms: _267  and  _270
REMARK  112  A    between atoms: _270  and  _271
REMARK  113  A    between atoms: _271  and  _272
REMARK  114  A    between atoms: _272  and  _273
REMARK  115  A    between atoms: _282  and  _284
REMARK  116  A    between atoms: _284  and  _285
REMARK  117  A    between atoms: _284  and  _287
REMARK  118  A    between atoms: _287  and  _288
REMARK  119  A    between atoms: _291  and  _293
REMARK  120  A    between atoms: _293  and  _294
REMARK  121  A    between atoms: _293  and  _296
REMARK  122  A    between atoms: _296  and  _297
REMARK  123  A    between atoms: _300  and  _302
REMARK  124  A    between atoms: _302  and  _303
REMARK  125  A    between atoms: _302  and  _305
REMARK  126  A    between atoms: _305  and  _306
REMARK  127  A    between atoms: _309  and  _311
REMARK  128  A    between atoms: _311  and  _312
REMARK  129  A    between atoms: _311  and  _314
REMARK  130  A    between atoms: _314  and  _315
REMARK  131  A    between atoms: _318  and  _320
REMARK  132  A    between atoms: _320  and  _321
REMARK  133  A    between atoms: _323  and  _325
REMARK  134  A    between atoms: _325  and  _326
REMARK  135  A    between atoms: _329  and  _331
REMARK  136  A    between atoms: _331  and  _332
REMARK  137  A    between atoms: _331  and  _334
REMARK  138  A    between atoms: _334  and  _335
REMARK  139  A    between atoms: _338  and  _340
REMARK  140  A    between atoms: _340  and  _341
REMARK  141  A    between atoms: _340  and  _343
REMARK  142  A    between atoms: _343  and  _344
REMARK  143  A    between atoms: _347  and  _349
REMARK  144  A    between atoms: _349  and  _350
REMARK  145  A    between atoms: _349  and  _352
REMARK  146  A    between atoms: _352  and  _353
REMARK  147  A    between atoms: _356  and  _358
REMARK  148  A    between atoms: _358  and  _359
REMARK  149  A    between atoms: _358  and  _361
REMARK  150  A    between atoms: _364  and  _366
REMARK  151  A    between atoms: _366  and  _367
REMARK  152  A    between atoms: _366  and  _369
REMARK  153  A    between atoms: _369  and  _370
REMARK  154  A    between atoms: _370  and  _371
REMARK  155  A    between atoms: _371  and  _372
REMARK  156  A    between atoms: _372  and  _373
REMARK  157  A    between atoms: _377  and  _379
REMARK  158  A    between atoms: _379  and  _380
REMARK  159  A    between atoms: _379  and  _382
REMARK  160  A    between atoms: _382  and  _383
REMARK  161  A    between atoms: _383  and  _384
REMARK  162  A    between atoms: _386  and  _388
REMARK  163  A    between atoms: _388  and  _389
REMARK  164  A    between atoms: _388  and  _391
REMARK  165  A    between atoms: _391  and  _392
REMARK  166  A    between atoms: _395  and  _397
REMARK  167  A    between atoms: _397  and  _398
REMARK  168  A    between atoms: _400  and  _402
REMARK  169  A    between atoms: _402  and  _403
REMARK  170  A    between atoms: _405  and  _407
REMARK  171  A    between atoms: _407  and  _408
REMARK  172  A    between atoms: _407  and  _410
REMARK  173  A    between atoms: _410  and  _411
REMARK  174  A    between atoms: _414  and  _416
REMARK  175  A    between atoms: _416  and  _417
REMARK  176  A    between atoms: _419  and  _421
REMARK  177  A    between atoms: _421  and  _422
REMARK  178  A    between atoms: _424  and  _426
REMARK  179  A    between atoms: _426  and  _427
REMARK  180  A    between atoms: _426  and  _429
REMARK  181  A    between atoms: _429  and  _430
REMARK  182  A    between atoms: _433  and  _435
REMARK  183  A    between atoms: _435  and  _436
REMARK  184  A    between atoms: _435  and  _438
REMARK  185  A    between atoms: _441  and  _443
REMARK  186  A    between atoms: _443  and  _444
REMARK  187  A    between atoms: _443  and  _446
REMARK  188  A    between atoms: _446  and  _447
REMARK  189  A    between atoms: _451  and  _452
REMARK  190  A    between atoms: _457  and  _459
REMARK  191  A    between atoms: _459  and  _460
REMARK  192  A    between atoms: _459  and  _462
REMARK  193  A    between atoms: _462  and  _463
REMARK  194  A    between atoms: _467  and  _468
REMARK  195  A    between atoms: _473  and  _475
REMARK  196  A    between atoms: _475  and  _476
REMARK  197  A    between atoms: _479  and  _481
REMARK  198  A    between atoms: _481  and  _482
REMARK  199  A    between atoms: _481  and  _484
REMARK  200  A    between atoms: _484  and  _485
REMARK  201  A    between atoms: _490  and  _492
REMARK  202  A    between atoms: _492  and  _493
REMARK  203  A    between atoms: _492  and  _495
REMARK  204  A    between atoms: _495  and  _496
REMARK  205  A    between atoms: _499  and  _501
REMARK  206  A    between atoms: _501  and  _502
REMARK  207  A    between atoms: _501  and  _504
REMARK  208  A    between atoms: _504  and  _505
REMARK  209  A    between atoms: _508  and  _510
REMARK  210  A    between atoms: _510  and  _511
REMARK  211  A    between atoms: _513  and  _515
REMARK  212  A    between atoms: _515  and  _516
REMARK  213  A    between atoms: _515  and  _518
REMARK  214  A    between atoms: _518  and  _519
REMARK  215  A    between atoms: _519  and  _520
REMARK  216  A    between atoms: _520  and  _521
REMARK  217  A    between atoms: _530  and  _532
REMARK  218  A    between atoms: _532  and  _533
REMARK  219  A    between atoms: _532  and  _535
REMARK  220  A    between atoms: _535  and  _536
REMARK                            x       y       z     vdW  Elec       q    Type
REMARK                         _______ _______ _______ _____ _____    ______ ____
ROOT
ATOM      1  O   HOH     1      20.573 -20.864 -16.708  0.00  0.00    +0.000 OA
ENDROOT
TORSDOF 0
REMARK  Name = ../refined-set-2016/4hdf/4hdf_pocket.pdb
REMARK  220 active torsions:
REMARK  status: ('A' for Active; 'I' for Inactive)
REMARK    1  A    between atoms: _1  and  _3
REMARK    2  A    between atoms: _3  and  _4
REMARK    3  A    between atoms: _3  and  _6
REMARK    4  A    between atoms: _6  and  _7
REMARK    5  A    between atoms: _7  and  _8
REMARK    6  A    between atoms: _8  and  _9
REMARK    7  A    between atoms: _18  and  _20
REMARK    8  A    between atoms: _20  and  _21
REMARK    9  A    between atoms: _20  and  _23
REMARK   10  A    between atoms: _23  and  _24
REMARK   11  A    between atoms: _27  and  _29
REMARK   12  A    between atoms: _29  and  _30
REMARK   13  A    between atoms: _29  and  _32
REMARK   14  A    between atoms: _32  and  _33
REMARK   15  A    between atoms: _36  and  _38
REMARK   16  A    between atoms: _38  and  _39
REMARK   17  A    between atoms: _38  and  _41
REMARK   18  A    between atoms: _41  and  _42
REMARK   19  A    between atoms: _45  and  _47
REMARK   20  A    between atoms: _47  and  _48
REMARK   21  A    between atoms: _47  and  _50
REMARK   22  A    between atoms: _50  and  _51
REMARK   23  A    between atoms: _54  and  _56
REMARK   24  A    between atoms: _56  and  _57
REMARK   25  A    between atoms: _59  and  _61
REMARK   26  A    between atoms: _61  and  _62
REMARK   27  A    between atoms: _65  and  _67
REMARK   28  A    between atoms: _67  and  _68
REMARK   29  A    between atoms: _67  and  _70
REMARK   30  A    between atoms: _70  and  _71
REMARK   31  A    between atoms: _74  and  _76
REMARK   32  A    between atoms: _76  and  _77
REMARK   33  A    between atoms: _76  and  _79
REMARK   34  A    between atoms: _79  and  _80
REMARK   35  A    between atoms: _83  and  _85
REMARK   36  A    between atoms: _85  and  _86
REMARK   37  A    between atoms: _85  and  _88
REMARK   38  A    between atoms: _88  and  _89
REMARK   39  A    between atoms: _92  and  _94
REMARK   40  A    between atoms: _94  and  _95
REMARK   41  A    between atoms: _94  and  _97
REMARK   42  A    between atoms: _100  and  _102
REMARK   43  A    between atoms: _102  and  _103
REMARK   44  A    between atoms: _102  and  _105
REMARK   45  A    between atoms: _105  and  _106
REMARK   46  A    between atoms: _106  and  _107
REMARK   47  A    between atoms: _107  and  _108
REMARK   48  A    between atoms: _108  and  _109
REMARK   49  A    between atoms: _113  and  _115
REMARK   50  A    between atoms: _115  and  _116
REMARK   51  A    between atoms: _115  and  _118
REMARK   52  A    between atoms: _118  and  _119
REMARK   53  A    between atoms: _119  and  _120
REMARK   54  A    between atoms: _122  and  _124
REMARK   55  A    between atoms: _124  and  _125
REMARK   56  A    between atoms: _124  and  _127
REMARK   57  A    between atoms: _127  and  _128
REMARK   58  A    between atoms: _131  and  _133
REMARK   59  A    between atoms: _133  and  _134
REMARK   60  A    between atoms: _136  and  _138
REMARK   61  A    between atoms: _138  and  _139
REMARK   62  A    between atoms: _141  and  _143
REMARK   63  A    between atoms: _143  and  _144
REMARK   64  A    between atoms: _143  and  _146
REMARK   65  A    between atoms: _146  and  _147
REMARK   66  A    between atoms: _150  and  _152
REMARK   67  A    between atoms: _152  and  _153
REMARK   68  A    between atoms: _155  and  _157
REMARK   69  A    between atoms: _157  and  _158
REMARK   70  A    between atoms: _160  and  _162
REMARK   71  A    between atoms: _162  and  _163
REMARK   72  A    between atoms: _162  and  _165
REMARK   73  A    between atoms: _165  and  _166
REMARK   74  A    between atoms: _172  and  _174
REMARK   75  A    between atoms: _174  and  _175
REMARK   76  A    between atoms: _174  and  _177
REMARK   77  A    between atoms: _177  and  _178
REMARK   78  A    between atoms: _181  and  _183
REMARK   79  A    between atoms: _183  and  _184
REMARK   80  A    between atoms: _183  and  _186
REMARK   81  A    between atoms: _186  and  _187
REMARK   82  A    between atoms: _190  and  _192
REMARK   83  A    between atoms: _192  and  _193
REMARK   84  A    between atoms: _192  and  _195
REMARK   85  A    between atoms: _195  and  _196
REMARK   86  A    between atoms: _200  and  _201
REMARK   87  A    between atoms: _206  and  _208
REMARK   88  A    between atoms: _208  and  _209
REMARK   89  A    between atoms: _212  and  _214
REMARK   90  A    between atoms: _214  and  _215
REMARK   91  A    between atoms: _214  and  _217
REMARK   92  A    between atoms: _217  and  _218
REMARK   93  A    between atoms: _223  and  _225
REMARK   94  A    between atoms: _225  and  _226
REMARK   95  A    between atoms: _225  and  _228
REMARK   96  A    between atoms: _228  and  _229
REMARK   97  A    between atoms: _232  and  _234
REMARK   98  A    between atoms: _234  and  _235
REMARK   99  A    between atoms: _237  and  _239
REMARK  100  A    between atoms: _239  and  _240
REMARK  101  A    between atoms: _239  and  _242
REMARK  102  A    between atoms: _242  and  _243
REMARK  103  A    between atoms: _243  and  _244
REMARK  104  A    between atoms: _244  and  _245
REMARK  105  A    between atoms: _254  and  _256
REMARK  106  A    between atoms: _256  and  _257
REMARK  107  A    between atoms: _256  and  _259
REMARK  108  A    between atoms: _259  and  _260
REMARK  109  A    between atoms: _265  and  _267
REMARK  110  A    between atoms: _267  and  _268
REMARK  111  A    between atoms: _267  and  _270
REMARK  112  A    between atoms: _270  and  _271
REMARK  113  A    between atoms: _271  and  _272
REMARK  114  A    between atoms: _272  and  _273
REMARK  115  A    between atoms: _282  and  _284
REMARK  116  A    between atoms: _284  and  _285
REMARK  117  A    between atoms: _284  and  _287
REMARK  118  A    between atoms: _287  and  _288
REMARK  119  A    between atoms: _291  and  _293
REMARK  120  A    between atoms: _293  and  _294
REMARK  121  A    between atoms: _293  and  _296
REMARK  122  A    between atoms: _296  and  _297
REMARK  123  A    between atoms: _300  and  _302
REMARK  124  A    between atoms: _302  and  _303
REMARK  125  A    between atoms: _302  and  _305
REMARK  126  A    between atoms: _305  and  _306
REMARK  127  A    between atoms: _309  and  _311
REMARK  128  A    between atoms: _311  and  _312
REMARK  129  A    between atoms: _311  and  _314
REMARK  130  A    between atoms: _314  and  _315
REMARK  131  A    between atoms: _318  and  _320
REMARK  132  A    between atoms: _320  and  _321
REMARK  133  A    between atoms: _323  and  _325
REMARK  134  A    between atoms: _325  and  _326
REMARK  135  A    between atoms: _329  and  _331
REMARK  136  A    between atoms: _331  and  _332
REMARK  137  A    between atoms: _331  and  _334
REMARK  138  A    between atoms: _334  and  _335
REMARK  139  A    between atoms: _338  and  _340
REMARK  140  A    between atoms: _340  and  _341
REMARK  141  A    between atoms: _340  and  _343
REMARK  142  A    between atoms: _343  and  _344
REMARK  143  A    between atoms: _347  and  _349
REMARK  144  A    between atoms: _349  and  _350
REMARK  145  A    between atoms: _349  and  _352
REMARK  146  A    between atoms: _352  and  _353
REMARK  147  A    between atoms: _356  and  _358
REMARK  148  A    between atoms: _358  and  _359
REMARK  149  A    between atoms: _358  and  _361
REMARK  150  A    between atoms: _364  and  _366
REMARK  151  A    between atoms: _366  and  _367
REMARK  152  A    between atoms: _366  and  _369
REMARK  153  A    between atoms: _369  and  _370
REMARK  154  A    between atoms: _370  and  _371
REMARK  155  A    between atoms: _371  and  _372
REMARK  156  A    between atoms: _372  and  _373
REMARK  157  A    between atoms: _377  and  _379
REMARK  158  A    between atoms: _379  and  _380
REMARK  159  A    between atoms: _379  and  _382
REMARK  160  A    between atoms: _382  and  _383
REMARK  161  A    between atoms: _383  and  _384
REMARK  162  A    between atoms: _386  and  _388
REMARK  163  A    between atoms: _388  and  _389
REMARK  164  A    between atoms: _388  and  _391
REMARK  165  A    between atoms: _391  and  _392
REMARK  166  A    between atoms: _395  and  _397
REMARK  167  A    between atoms: _397  and  _398
REMARK  168  A    between atoms: _400  and  _402
REMARK  169  A    between atoms: _402  and  _403
REMARK  170  A    between atoms: _405  and  _407
REMARK  171  A    between atoms: _407  and  _408
REMARK  172  A    between atoms: _407  and  _410
REMARK  173  A    between atoms: _410  and  _411
REMARK  174  A    between atoms: _414  and  _416
REMARK  175  A    between atoms: _416  and  _417
REMARK  176  A    between atoms: _419  and  _421
REMARK  177  A    between atoms: _421  and  _422
REMARK  178  A    between atoms: _424  and  _426
REMARK  179  A    between atoms: _426  and  _427
REMARK  180  A    between atoms: _426  and  _429
REMARK  181  A    between atoms: _429  and  _430
REMARK  182  A    between atoms: _433  and  _435
REMARK  183  A    between atoms: _435  and  _436
REMARK  184  A    between atoms: _435  and  _438
REMARK  185  A    between atoms: _441  and  _443
REMARK  186  A    between atoms: _443  and  _444
REMARK  187  A    between atoms: _443  and  _446
REMARK  188  A    between atoms: _446  and  _447
REMARK  189  A    between atoms: _451  and  _452
REMARK  190  A    between atoms: _457  and  _459
REMARK  191  A    between atoms: _459  and  _460
REMARK  192  A    between atoms: _459  and  _462
REMARK  193  A    between atoms: _462  and  _463
REMARK  194  A    between atoms: _467  and  _468
REMARK  195  A    between atoms: _473  and  _475
REMARK  196  A    between atoms: _475  and  _476
REMARK  197  A    between atoms: _479  and  _481
REMARK  198  A    between atoms: _481  and  _482
REMARK  199  A    between atoms: _481  and  _484
REMARK  200  A    between atoms: _484  and  _485
REMARK  201  A    between atoms: _490  and  _492
REMARK  202  A    between atoms: _492  and  _493
REMARK  203  A    between atoms: _492  and  _495
REMARK  204  A    between atoms: _495  and  _496
REMARK  205  A    between atoms: _499  and  _501
REMARK  206  A    between atoms: _501  and  _502
REMARK  207  A    between atoms: _501  and  _504
REMARK  208  A    between atoms: _504  and  _505
REMARK  209  A    between atoms: _508  and  _510
REMARK  210  A    between atoms: _510  and  _511
REMARK  211  A    between atoms: _513  and  _515
REMARK  212  A    between atoms: _515  and  _516
REMARK  213  A    between atoms: _515  and  _518
REMARK  214  A    between atoms: _518  and  _519
REMARK  215  A    between atoms: _519  and  _520
REMARK  216  A    between atoms: _520  and  _521
REMARK  217  A    between atoms: _530  and  _532
REMARK  218  A    between atoms: _532  and  _533
REMARK  219  A    between atoms: _532  and  _535
REMARK  220  A    between atoms: _535  and  _536
REMARK                            x       y       z     vdW  Elec       q    Type
REMARK                         _______ _______ _______ _____ _____    ______ ____
ROOT
ATOM      1  O   HOH     1      20.128 -26.872 -26.939  0.00  0.00    +0.000 OA
ENDROOT
TORSDOF 0
REMARK  Name = ../refined-set-2016/4hdf/4hdf_pocket.pdb
REMARK  220 active torsions:
REMARK  status: ('A' for Active; 'I' for Inactive)
REMARK    1  A    between atoms: _1  and  _3
REMARK    2  A    between atoms: _3  and  _4
REMARK    3  A    between atoms: _3  and  _6
REMARK    4  A    between atoms: _6  and  _7
REMARK    5  A    between atoms: _7  and  _8
REMARK    6  A    between atoms: _8  and  _9
REMARK    7  A    between atoms: _18  and  _20
REMARK    8  A    between atoms: _20  and  _21
REMARK    9  A    between atoms: _20  and  _23
REMARK   10  A    between atoms: _23  and  _24
REMARK   11  A    between atoms: _27  and  _29
REMARK   12  A    between atoms: _29  and  _30
REMARK   13  A    between atoms: _29  and  _32
REMARK   14  A    between atoms: _32  and  _33
REMARK   15  A    between atoms: _36  and  _38
REMARK   16  A    between atoms: _38  and  _39
REMARK   17  A    between atoms: _38  and  _41
REMARK   18  A    between atoms: _41  and  _42
REMARK   19  A    between atoms: _45  and  _47
REMARK   20  A    between atoms: _47  and  _48
REMARK   21  A    between atoms: _47  and  _50
REMARK   22  A    between atoms: _50  and  _51
REMARK   23  A    between atoms: _54  and  _56
REMARK   24  A    between atoms: _56  and  _57
REMARK   25  A    between atoms: _59  and  _61
REMARK   26  A    between atoms: _61  and  _62
REMARK   27  A    between atoms: _65  and  _67
REMARK   28  A    between atoms: _67  and  _68
REMARK   29  A    between atoms: _67  and  _70
REMARK   30  A    between atoms: _70  and  _71
REMARK   31  A    between atoms: _74  and  _76
REMARK   32  A    between atoms: _76  and  _77
REMARK   33  A    between atoms: _76  and  _79
REMARK   34  A    between atoms: _79  and  _80
REMARK   35  A    between atoms: _83  and  _85
REMARK   36  A    between atoms: _85  and  _86
REMARK   37  A    between atoms: _85  and  _88
REMARK   38  A    between atoms: _88  and  _89
REMARK   39  A    between atoms: _92  and  _94
REMARK   40  A    between atoms: _94  and  _95
REMARK   41  A    between atoms: _94  and  _97
REMARK   42  A    between atoms: _100  and  _102
REMARK   43  A    between atoms: _102  and  _103
REMARK   44  A    between atoms: _102  and  _105
REMARK   45  A    between atoms: _105  and  _106
REMARK   46  A    between atoms: _106  and  _107
REMARK   47  A    between atoms: _107  and  _108
REMARK   48  A    between atoms: _108  and  _109
REMARK   49  A    between atoms: _113  and  _115
REMARK   50  A    between atoms: _115  and  _116
REMARK   51  A    between atoms: _115  and  _118
REMARK   52  A    between atoms: _118  and  _119
REMARK   53  A    between atoms: _119  and  _120
REMARK   54  A    between atoms: _122  and  _124
REMARK   55  A    between atoms: _124  and  _125
REMARK   56  A    between atoms: _124  and  _127
REMARK   57  A    between atoms: _127  and  _128
REMARK   58  A    between atoms: _131  and  _133
REMARK   59  A    between atoms: _133  and  _134
REMARK   60  A    between atoms: _136  and  _138
REMARK   61  A    between atoms: _138  and  _139
REMARK   62  A    between atoms: _141  and  _143
REMARK   63  A    between atoms: _143  and  _144
REMARK   64  A    between atoms: _143  and  _146
REMARK   65  A    between atoms: _146  and  _147
REMARK   66  A    between atoms: _150  and  _152
REMARK   67  A    between atoms: _152  and  _153
REMARK   68  A    between atoms: _155  and  _157
REMARK   69  A    between atoms: _157  and  _158
REMARK   70  A    between atoms: _160  and  _162
REMARK   71  A    between atoms: _162  and  _163
REMARK   72  A    between atoms: _162  and  _165
REMARK   73  A    between atoms: _165  and  _166
REMARK   74  A    between atoms: _172  and  _174
REMARK   75  A    between atoms: _174  and  _175
REMARK   76  A    between atoms: _174  and  _177
REMARK   77  A    between atoms: _177  and  _178
REMARK   78  A    between atoms: _181  and  _183
REMARK   79  A    between atoms: _183  and  _184
REMARK   80  A    between atoms: _183  and  _186
REMARK   81  A    between atoms: _186  and  _187
REMARK   82  A    between atoms: _190  and  _192
REMARK   83  A    between atoms: _192  and  _193
REMARK   84  A    between atoms: _192  and  _195
REMARK   85  A    between atoms: _195  and  _196
REMARK   86  A    between atoms: _200  and  _201
REMARK   87  A    between atoms: _206  and  _208
REMARK   88  A    between atoms: _208  and  _209
REMARK   89  A    between atoms: _212  and  _214
REMARK   90  A    between atoms: _214  and  _215
REMARK   91  A    between atoms: _214  and  _217
REMARK   92  A    between atoms: _217  and  _218
REMARK   93  A    between atoms: _223  and  _225
REMARK   94  A    between atoms: _225  and  _226
REMARK   95  A    between atoms: _225  and  _228
REMARK   96  A    between atoms: _228  and  _229
REMARK   97  A    between atoms: _232  and  _234
REMARK   98  A    between atoms: _234  and  _235
REMARK   99  A    between atoms: _237  and  _239
REMARK  100  A    between atoms: _239  and  _240
REMARK  101  A    between atoms: _239  and  _242
REMARK  102  A    between atoms: _242  and  _243
REMARK  103  A    between atoms: _243  and  _244
REMARK  104  A    between atoms: _244  and  _245
REMARK  105  A    between atoms: _254  and  _256
REMARK  106  A    between atoms: _256  and  _257
REMARK  107  A    between atoms: _256  and  _259
REMARK  108  A    between atoms: _259  and  _260
REMARK  109  A    between atoms: _265  and  _267
REMARK  110  A    between atoms: _267  and  _268
REMARK  111  A    between atoms: _267  and  _270
REMARK  112  A    between atoms: _270  and  _271
REMARK  113  A    between atoms: _271  and  _272
REMARK  114  A    between atoms: _272  and  _273
REMARK  115  A    between atoms: _282  and  _284
REMARK  116  A    between atoms: _284  and  _285
REMARK  117  A    between atoms: _284  and  _287
REMARK  118  A    between atoms: _287  and  _288
REMARK  119  A    between atoms: _291  and  _293
REMARK  120  A    between atoms: _293  and  _294
REMARK  121  A    between atoms: _293  and  _296
REMARK  122  A    between atoms: _296  and  _297
REMARK  123  A    between atoms: _300  and  _302
REMARK  124  A    between atoms: _302  and  _303
REMARK  125  A    between atoms: _302  and  _305
REMARK  126  A    between atoms: _305  and  _306
REMARK  127  A    between atoms: _309  and  _311
REMARK  128  A    between atoms: _311  and  _312
REMARK  129  A    between atoms: _311  and  _314
REMARK  130  A    between atoms: _314  and  _315
REMARK  131  A    between atoms: _318  and  _320
REMARK  132  A    between atoms: _320  and  _321
REMARK  133  A    between atoms: _323  and  _325
REMARK  134  A    between atoms: _325  and  _326
REMARK  135  A    between atoms: _329  and  _331
REMARK  136  A    between atoms: _331  and  _332
REMARK  137  A    between atoms: _331  and  _334
REMARK  138  A    between atoms: _334  and  _335
REMARK  139  A    between atoms: _338  and  _340
REMARK  140  A    between atoms: _340  and  _341
REMARK  141  A    between atoms: _340  and  _343
REMARK  142  A    between atoms: _343  and  _344
REMARK  143  A    between atoms: _347  and  _349
REMARK  144  A    between atoms: _349  and  _350
REMARK  145  A    between atoms: _349  and  _352
REMARK  146  A    between atoms: _352  and  _353
REMARK  147  A    between atoms: _356  and  _358
REMARK  148  A    between atoms: _358  and  _359
REMARK  149  A    between atoms: _358  and  _361
REMARK  150  A    between atoms: _364  and  _366
REMARK  151  A    between atoms: _366  and  _367
REMARK  152  A    between atoms: _366  and  _369
REMARK  153  A    between atoms: _369  and  _370
REMARK  154  A    between atoms: _370  and  _371
REMARK  155  A    between atoms: _371  and  _372
REMARK  156  A    between atoms: _372  and  _373
REMARK  157  A    between atoms: _377  and  _379
REMARK  158  A    between atoms: _379  and  _380
REMARK  159  A    between atoms: _379  and  _382
REMARK  160  A    between atoms: _382  and  _383
REMARK  161  A    between atoms: _383  and  _384
REMARK  162  A    between atoms: _386  and  _388
REMARK  163  A    between atoms: _388  and  _389
REMARK  164  A    between atoms: _388  and  _391
REMARK  165  A    between atoms: _391  and  _392
REMARK  166  A    between atoms: _395  and  _397
REMARK  167  A    between atoms: _397  and  _398
REMARK  168  A    between atoms: _400  and  _402
REMARK  169  A    between atoms: _402  and  _403
REMARK  170  A    between atoms: _405  and  _407
REMARK  171  A    between atoms: _407  and  _408
REMARK  172  A    between atoms: _407  and  _410
REMARK  173  A    between atoms: _410  and  _411
REMARK  174  A    between atoms: _414  and  _416
REMARK  175  A    between atoms: _416  and  _417
REMARK  176  A    between atoms: _419  and  _421
REMARK  177  A    between atoms: _421  and  _422
REMARK  178  A    between atoms: _424  and  _426
REMARK  179  A    between atoms: _426  and  _427
REMARK  180  A    between atoms: _426  and  _429
REMARK  181  A    between atoms: _429  and  _430
REMARK  182  A    between atoms: _433  and  _435
REMARK  183  A    between atoms: _435  and  _436
REMARK  184  A    between atoms: _435  and  _438
REMARK  185  A    between atoms: _441  and  _443
REMARK  186  A    between atoms: _443  and  _444
REMARK  187  A    between atoms: _443  and  _446
REMARK  188  A    between atoms: _446  and  _447
REMARK  189  A    between atoms: _451  and  _452
REMARK  190  A    between atoms: _457  and  _459
REMARK  191  A    between atoms: _459  and  _460
REMARK  192  A    between atoms: _459  and  _462
REMARK  193  A    between atoms: _462  and  _463
REMARK  194  A    between atoms: _467  and  _468
REMARK  195  A    between atoms: _473  and  _475
REMARK  196  A    between atoms: _475  and  _476
REMARK  197  A    between atoms: _479  and  _481
REMARK  198  A    between atoms: _481  and  _482
REMARK  199  A    between atoms: _481  and  _484
REMARK  200  A    between atoms: _484  and  _485
REMARK  201  A    between atoms: _490  and  _492
REMARK  202  A    between atoms: _492  and  _493
REMARK  203  A    between atoms: _492  and  _495
REMARK  204  A    between atoms: _495  and  _496
REMARK  205  A    between atoms: _499  and  _501
REMARK  206  A    between atoms: _501  and  _502
REMARK  207  A    between atoms: _501  and  _504
REMARK  208  A    between atoms: _504  and  _505
REMARK  209  A    between atoms: _508  and  _510
REMARK  210  A    between atoms: _510  and  _511
REMARK  211  A    between atoms: _513  and  _515
REMARK  212  A    between atoms: _515  and  _516
REMARK  213  A    between atoms: _515  and  _518
REMARK  214  A    between atoms: _518  and  _519
REMARK  215  A    between atoms: _519  and  _520
REMARK  216  A    between atoms: _520  and  _521
REMARK  217  A    between atoms: _530  and  _532
REMARK  218  A    between atoms: _532  and  _533
REMARK  219  A    between atoms: _532  and  _535
REMARK  220  A    between atoms: _535  and  _536
REMARK                            x       y       z     vdW  Elec       q    Type
REMARK                         _______ _______ _______ _____ _____    ______ ____
ROOT
ATOM      1  O   HOH     1       7.357 -15.998 -22.832  0.00  0.00    +0.000 OA
ENDROOT
TORSDOF 0
REMARK  Name = ../refined-set-2016/4hdf/4hdf_pocket.pdb
REMARK  220 active torsions:
REMARK  status: ('A' for Active; 'I' for Inactive)
REMARK    1  A    between atoms: _1  and  _3
REMARK    2  A    between atoms: _3  and  _4
REMARK    3  A    between atoms: _3  and  _6
REMARK    4  A    between atoms: _6  and  _7
REMARK    5  A    between atoms: _7  and  _8
REMARK    6  A    between atoms: _8  and  _9
REMARK    7  A    between atoms: _18  and  _20
REMARK    8  A    between atoms: _20  and  _21
REMARK    9  A    between atoms: _20  and  _23
REMARK   10  A    between atoms: _23  and  _24
REMARK   11  A    between atoms: _27  and  _29
REMARK   12  A    between atoms: _29  and  _30
REMARK   13  A    between atoms: _29  and  _32
REMARK   14  A    between atoms: _32  and  _33
REMARK   15  A    between atoms: _36  and  _38
REMARK   16  A    between atoms: _38  and  _39
REMARK   17  A    between atoms: _38  and  _41
REMARK   18  A    between atoms: _41  and  _42
REMARK   19  A    between atoms: _45  and  _47
REMARK   20  A    between atoms: _47  and  _48
REMARK   21  A    between atoms: _47  and  _50
REMARK   22  A    between atoms: _50  and  _51
REMARK   23  A    between atoms: _54  and  _56
REMARK   24  A    between atoms: _56  and  _57
REMARK   25  A    between atoms: _59  and  _61
REMARK   26  A    between atoms: _61  and  _62
REMARK   27  A    between atoms: _65  and  _67
REMARK   28  A    between atoms: _67  and  _68
REMARK   29  A    between atoms: _67  and  _70
REMARK   30  A    between atoms: _70  and  _71
REMARK   31  A    between atoms: _74  and  _76
REMARK   32  A    between atoms: _76  and  _77
REMARK   33  A    between atoms: _76  and  _79
REMARK   34  A    between atoms: _79  and  _80
REMARK   35  A    between atoms: _83  and  _85
REMARK   36  A    between atoms: _85  and  _86
REMARK   37  A    between atoms: _85  and  _88
REMARK   38  A    between atoms: _88  and  _89
REMARK   39  A    between atoms: _92  and  _94
REMARK   40  A    between atoms: _94  and  _95
REMARK   41  A    between atoms: _94  and  _97
REMARK   42  A    between atoms: _100  and  _102
REMARK   43  A    between atoms: _102  and  _103
REMARK   44  A    between atoms: _102  and  _105
REMARK   45  A    between atoms: _105  and  _106
REMARK   46  A    between atoms: _106  and  _107
REMARK   47  A    between atoms: _107  and  _108
REMARK   48  A    between atoms: _108  and  _109
REMARK   49  A    between atoms: _113  and  _115
REMARK   50  A    between atoms: _115  and  _116
REMARK   51  A    between atoms: _115  and  _118
REMARK   52  A    between atoms: _118  and  _119
REMARK   53  A    between atoms: _119  and  _120
REMARK   54  A    between atoms: _122  and  _124
REMARK   55  A    between atoms: _124  and  _125
REMARK   56  A    between atoms: _124  and  _127
REMARK   57  A    between atoms: _127  and  _128
REMARK   58  A    between atoms: _131  and  _133
REMARK   59  A    between atoms: _133  and  _134
REMARK   60  A    between atoms: _136  and  _138
REMARK   61  A    between atoms: _138  and  _139
REMARK   62  A    between atoms: _141  and  _143
REMARK   63  A    between atoms: _143  and  _144
REMARK   64  A    between atoms: _143  and  _146
REMARK   65  A    between atoms: _146  and  _147
REMARK   66  A    between atoms: _150  and  _152
REMARK   67  A    between atoms: _152  and  _153
REMARK   68  A    between atoms: _155  and  _157
REMARK   69  A    between atoms: _157  and  _158
REMARK   70  A    between atoms: _160  and  _162
REMARK   71  A    between atoms: _162  and  _163
REMARK   72  A    between atoms: _162  and  _165
REMARK   73  A    between atoms: _165  and  _166
REMARK   74  A    between atoms: _172  and  _174
REMARK   75  A    between atoms: _174  and  _175
REMARK   76  A    between atoms: _174  and  _177
REMARK   77  A    between atoms: _177  and  _178
REMARK   78  A    between atoms: _181  and  _183
REMARK   79  A    between atoms: _183  and  _184
REMARK   80  A    between atoms: _183  and  _186
REMARK   81  A    between atoms: _186  and  _187
REMARK   82  A    between atoms: _190  and  _192
REMARK   83  A    between atoms: _192  and  _193
REMARK   84  A    between atoms: _192  and  _195
REMARK   85  A    between atoms: _195  and  _196
REMARK   86  A    between atoms: _200  and  _201
REMARK   87  A    between atoms: _206  and  _208
REMARK   88  A    between atoms: _208  and  _209
REMARK   89  A    between atoms: _212  and  _214
REMARK   90  A    between atoms: _214  and  _215
REMARK   91  A    between atoms: _214  and  _217
REMARK   92  A    between atoms: _217  and  _218
REMARK   93  A    between atoms: _223  and  _225
REMARK   94  A    between atoms: _225  and  _226
REMARK   95  A    between atoms: _225  and  _228
REMARK   96  A    between atoms: _228  and  _229
REMARK   97  A    between atoms: _232  and  _234
REMARK   98  A    between atoms: _234  and  _235
REMARK   99  A    between atoms: _237  and  _239
REMARK  100  A    between atoms: _239  and  _240
REMARK  101  A    between atoms: _239  and  _242
REMARK  102  A    between atoms: _242  and  _243
REMARK  103  A    between atoms: _243  and  _244
REMARK  104  A    between atoms: _244  and  _245
REMARK  105  A    between atoms: _254  and  _256
REMARK  106  A    between atoms: _256  and  _257
REMARK  107  A    between atoms: _256  and  _259
REMARK  108  A    between atoms: _259  and  _260
REMARK  109  A    between atoms: _265  and  _267
REMARK  110  A    between atoms: _267  and  _268
REMARK  111  A    between atoms: _267  and  _270
REMARK  112  A    between atoms: _270  and  _271
REMARK  113  A    between atoms: _271  and  _272
REMARK  114  A    between atoms: _272  and  _273
REMARK  115  A    between atoms: _282  and  _284
REMARK  116  A    between atoms: _284  and  _285
REMARK  117  A    between atoms: _284  and  _287
REMARK  118  A    between atoms: _287  and  _288
REMARK  119  A    between atoms: _291  and  _293
REMARK  120  A    between atoms: _293  and  _294
REMARK  121  A    between atoms: _293  and  _296
REMARK  122  A    between atoms: _296  and  _297
REMARK  123  A    between atoms: _300  and  _302
REMARK  124  A    between atoms: _302  and  _303
REMARK  125  A    between atoms: _302  and  _305
REMARK  126  A    between atoms: _305  and  _306
REMARK  127  A    between atoms: _309  and  _311
REMARK  128  A    between atoms: _311  and  _312
REMARK  129  A    between atoms: _311  and  _314
REMARK  130  A    between atoms: _314  and  _315
REMARK  131  A    between atoms: _318  and  _320
REMARK  132  A    between atoms: _320  and  _321
REMARK  133  A    between atoms: _323  and  _325
REMARK  134  A    between atoms: _325  and  _326
REMARK  135  A    between atoms: _329  and  _331
REMARK  136  A    between atoms: _331  and  _332
REMARK  137  A    between atoms: _331  and  _334
REMARK  138  A    between atoms: _334  and  _335
REMARK  139  A    between atoms: _338  and  _340
REMARK  140  A    between atoms: _340  and  _341
REMARK  141  A    between atoms: _340  and  _343
REMARK  142  A    between atoms: _343  and  _344
REMARK  143  A    between atoms: _347  and  _349
REMARK  144  A    between atoms: _349  and  _350
REMARK  145  A    between atoms: _349  and  _352
REMARK  146  A    between atoms: _352  and  _353
REMARK  147  A    between atoms: _356  and  _358
REMARK  148  A    between atoms: _358  and  _359
REMARK  149  A    between atoms: _358  and  _361
REMARK  150  A    between atoms: _364  and  _366
REMARK  151  A    between atoms: _366  and  _367
REMARK  152  A    between atoms: _366  and  _369
REMARK  153  A    between atoms: _369  and  _370
REMARK  154  A    between atoms: _370  and  _371
REMARK  155  A    between atoms: _371  and  _372
REMARK  156  A    between atoms: _372  and  _373
REMARK  157  A    between atoms: _377  and  _379
REMARK  158  A    between atoms: _379  and  _380
REMARK  159  A    between atoms: _379  and  _382
REMARK  160  A    between atoms: _382  and  _383
REMARK  161  A    between atoms: _383  and  _384
REMARK  162  A    between atoms: _386  and  _388
REMARK  163  A    between atoms: _388  and  _389
REMARK  164  A    between atoms: _388  and  _391
REMARK  165  A    between atoms: _391  and  _392
REMARK  166  A    between atoms: _395  and  _397
REMARK  167  A    between atoms: _397  and  _398
REMARK  168  A    between atoms: _400  and  _402
REMARK  169  A    between atoms: _402  and  _403
REMARK  170  A    between atoms: _405  and  _407
REMARK  171  A    between atoms: _407  and  _408
REMARK  172  A    between atoms: _407  and  _410
REMARK  173  A    between atoms: _410  and  _411
REMARK  174  A    between atoms: _414  and  _416
REMARK  175  A    between atoms: _416  and  _417
REMARK  176  A    between atoms: _419  and  _421
REMARK  177  A    between atoms: _421  and  _422
REMARK  178  A    between atoms: _424  and  _426
REMARK  179  A    between atoms: _426  and  _427
REMARK  180  A    between atoms: _426  and  _429
REMARK  181  A    between atoms: _429  and  _430
REMARK  182  A    between atoms: _433  and  _435
REMARK  183  A    between atoms: _435  and  _436
REMARK  184  A    between atoms: _435  and  _438
REMARK  185  A    between atoms: _441  and  _443
REMARK  186  A    between atoms: _443  and  _444
REMARK  187  A    between atoms: _443  and  _446
REMARK  188  A    between atoms: _446  and  _447
REMARK  189  A    between atoms: _451  and  _452
REMARK  190  A    between atoms: _457  and  _459
REMARK  191  A    between atoms: _459  and  _460
REMARK  192  A    between atoms: _459  and  _462
REMARK  193  A    between atoms: _462  and  _463
REMARK  194  A    between atoms: _467  and  _468
REMARK  195  A    between atoms: _473  and  _475
REMARK  196  A    between atoms: _475  and  _476
REMARK  197  A    between atoms: _479  and  _481
REMARK  198  A    between atoms: _481  and  _482
REMARK  199  A    between atoms: _481  and  _484
REMARK  200  A    between atoms: _484  and  _485
REMARK  201  A    between atoms: _490  and  _492
REMARK  202  A    between atoms: _492  and  _493
REMARK  203  A    between atoms: _492  and  _495
REMARK  204  A    between atoms: _495  and  _496
REMARK  205  A    between atoms: _499  and  _501
REMARK  206  A    between atoms: _501  and  _502
REMARK  207  A    between atoms: _501  and  _504
REMARK  208  A    between atoms: _504  and  _505
REMARK  209  A    between atoms: _508  and  _510
REMARK  210  A    between atoms: _510  and  _511
REMARK  211  A    between atoms: _513  and  _515
REMARK  212  A    between atoms: _515  and  _516
REMARK  213  A    between atoms: _515  and  _518
REMARK  214  A    between atoms: _518  and  _519
REMARK  215  A    between atoms: _519  and  _520
REMARK  216  A    between atoms: _520  and  _521
REMARK  217  A    between atoms: _530  and  _532
REMARK  218  A    between atoms: _532  and  _533
REMARK  219  A    between atoms: _532  and  _535
REMARK  220  A    between atoms: _535  and  _536
REMARK                            x       y       z     vdW  Elec       q    Type
REMARK                         _______ _______ _______ _____ _____    ______ ____
ROOT
ATOM      1  O   HOH     1      11.269 -22.386 -16.514  0.00  0.00    +0.000 OA
ENDROOT
TORSDOF 0
REMARK  Name = ../refined-set-2016/4hdf/4hdf_pocket.pdb
REMARK  220 active torsions:
REMARK  status: ('A' for Active; 'I' for Inactive)
REMARK    1  A    between atoms: _1  and  _3
REMARK    2  A    between atoms: _3  and  _4
REMARK    3  A    between atoms: _3  and  _6
REMARK    4  A    between atoms: _6  and  _7
REMARK    5  A    between atoms: _7  and  _8
REMARK    6  A    between atoms: _8  and  _9
REMARK    7  A    between atoms: _18  and  _20
REMARK    8  A    between atoms: _20  and  _21
REMARK    9  A    between atoms: _20  and  _23
REMARK   10  A    between atoms: _23  and  _24
REMARK   11  A    between atoms: _27  and  _29
REMARK   12  A    between atoms: _29  and  _30
REMARK   13  A    between atoms: _29  and  _32
REMARK   14  A    between atoms: _32  and  _33
REMARK   15  A    between atoms: _36  and  _38
REMARK   16  A    between atoms: _38  and  _39
REMARK   17  A    between atoms: _38  and  _41
REMARK   18  A    between atoms: _41  and  _42
REMARK   19  A    between atoms: _45  and  _47
REMARK   20  A    between atoms: _47  and  _48
REMARK   21  A    between atoms: _47  and  _50
REMARK   22  A    between atoms: _50  and  _51
REMARK   23  A    between atoms: _54  and  _56
REMARK   24  A    between atoms: _56  and  _57
REMARK   25  A    between atoms: _59  and  _61
REMARK   26  A    between atoms: _61  and  _62
REMARK   27  A    between atoms: _65  and  _67
REMARK   28  A    between atoms: _67  and  _68
REMARK   29  A    between atoms: _67  and  _70
REMARK   30  A    between atoms: _70  and  _71
REMARK   31  A    between atoms: _74  and  _76
REMARK   32  A    between atoms: _76  and  _77
REMARK   33  A    between atoms: _76  and  _79
REMARK   34  A    between atoms: _79  and  _80
REMARK   35  A    between atoms: _83  and  _85
REMARK   36  A    between atoms: _85  and  _86
REMARK   37  A    between atoms: _85  and  _88
REMARK   38  A    between atoms: _88  and  _89
REMARK   39  A    between atoms: _92  and  _94
REMARK   40  A    between atoms: _94  and  _95
REMARK   41  A    between atoms: _94  and  _97
REMARK   42  A    between atoms: _100  and  _102
REMARK   43  A    between atoms: _102  and  _103
REMARK   44  A    between atoms: _102  and  _105
REMARK   45  A    between atoms: _105  and  _106
REMARK   46  A    between atoms: _106  and  _107
REMARK   47  A    between atoms: _107  and  _108
REMARK   48  A    between atoms: _108  and  _109
REMARK   49  A    between atoms: _113  and  _115
REMARK   50  A    between atoms: _115  and  _116
REMARK   51  A    between atoms: _115  and  _118
REMARK   52  A    between atoms: _118  and  _119
REMARK   53  A    between atoms: _119  and  _120
REMARK   54  A    between atoms: _122  and  _124
REMARK   55  A    between atoms: _124  and  _125
REMARK   56  A    between atoms: _124  and  _127
REMARK   57  A    between atoms: _127  and  _128
REMARK   58  A    between atoms: _131  and  _133
REMARK   59  A    between atoms: _133  and  _134
REMARK   60  A    between atoms: _136  and  _138
REMARK   61  A    between atoms: _138  and  _139
REMARK   62  A    between atoms: _141  and  _143
REMARK   63  A    between atoms: _143  and  _144
REMARK   64  A    between atoms: _143  and  _146
REMARK   65  A    between atoms: _146  and  _147
REMARK   66  A    between atoms: _150  and  _152
REMARK   67  A    between atoms: _152  and  _153
REMARK   68  A    between atoms: _155  and  _157
REMARK   69  A    between atoms: _157  and  _158
REMARK   70  A    between atoms: _160  and  _162
REMARK   71  A    between atoms: _162  and  _163
REMARK   72  A    between atoms: _162  and  _165
REMARK   73  A    between atoms: _165  and  _166
REMARK   74  A    between atoms: _172  and  _174
REMARK   75  A    between atoms: _174  and  _175
REMARK   76  A    between atoms: _174  and  _177
REMARK   77  A    between atoms: _177  and  _178
REMARK   78  A    between atoms: _181  and  _183
REMARK   79  A    between atoms: _183  and  _184
REMARK   80  A    between atoms: _183  and  _186
REMARK   81  A    between atoms: _186  and  _187
REMARK   82  A    between atoms: _190  and  _192
REMARK   83  A    between atoms: _192  and  _193
REMARK   84  A    between atoms: _192  and  _195
REMARK   85  A    between atoms: _195  and  _196
REMARK   86  A    between atoms: _200  and  _201
REMARK   87  A    between atoms: _206  and  _208
REMARK   88  A    between atoms: _208  and  _209
REMARK   89  A    between atoms: _212  and  _214
REMARK   90  A    between atoms: _214  and  _215
REMARK   91  A    between atoms: _214  and  _217
REMARK   92  A    between atoms: _217  and  _218
REMARK   93  A    between atoms: _223  and  _225
REMARK   94  A    between atoms: _225  and  _226
REMARK   95  A    between atoms: _225  and  _228
REMARK   96  A    between atoms: _228  and  _229
REMARK   97  A    between atoms: _232  and  _234
REMARK   98  A    between atoms: _234  and  _235
REMARK   99  A    between atoms: _237  and  _239
REMARK  100  A    between atoms: _239  and  _240
REMARK  101  A    between atoms: _239  and  _242
REMARK  102  A    between atoms: _242  and  _243
REMARK  103  A    between atoms: _243  and  _244
REMARK  104  A    between atoms: _244  and  _245
REMARK  105  A    between atoms: _254  and  _256
REMARK  106  A    between atoms: _256  and  _257
REMARK  107  A    between atoms: _256  and  _259
REMARK  108  A    between atoms: _259  and  _260
REMARK  109  A    between atoms: _265  and  _267
REMARK  110  A    between atoms: _267  and  _268
REMARK  111  A    between atoms: _267  and  _270
REMARK  112  A    between atoms: _270  and  _271
REMARK  113  A    between atoms: _271  and  _272
REMARK  114  A    between atoms: _272  and  _273
REMARK  115  A    between atoms: _282  and  _284
REMARK  116  A    between atoms: _284  and  _285
REMARK  117  A    between atoms: _284  and  _287
REMARK  118  A    between atoms: _287  and  _288
REMARK  119  A    between atoms: _291  and  _293
REMARK  120  A    between atoms: _293  and  _294
REMARK  121  A    between atoms: _293  and  _296
REMARK  122  A    between atoms: _296  and  _297
REMARK  123  A    between atoms: _300  and  _302
REMARK  124  A    between atoms: _302  and  _303
REMARK  125  A    between atoms: _302  and  _305
REMARK  126  A    between atoms: _305  and  _306
REMARK  127  A    between atoms: _309  and  _311
REMARK  128  A    between atoms: _311  and  _312
REMARK  129  A    between atoms: _311  and  _314
REMARK  130  A    between atoms: _314  and  _315
REMARK  131  A    between atoms: _318  and  _320
REMARK  132  A    between atoms: _320  and  _321
REMARK  133  A    between atoms: _323  and  _325
REMARK  134  A    between atoms: _325  and  _326
REMARK  135  A    between atoms: _329  and  _331
REMARK  136  A    between atoms: _331  and  _332
REMARK  137  A    between atoms: _331  and  _334
REMARK  138  A    between atoms: _334  and  _335
REMARK  139  A    between atoms: _338  and  _340
REMARK  140  A    between atoms: _340  and  _341
REMARK  141  A    between atoms: _340  and  _343
REMARK  142  A    between atoms: _343  and  _344
REMARK  143  A    between atoms: _347  and  _349
REMARK  144  A    between atoms: _349  and  _350
REMARK  145  A    between atoms: _349  and  _352
REMARK  146  A    between atoms: _352  and  _353
REMARK  147  A    between atoms: _356  and  _358
REMARK  148  A    between atoms: _358  and  _359
REMARK  149  A    between atoms: _358  and  _361
REMARK  150  A    between atoms: _364  and  _366
REMARK  151  A    between atoms: _366  and  _367
REMARK  152  A    between atoms: _366  and  _369
REMARK  153  A    between atoms: _369  and  _370
REMARK  154  A    between atoms: _370  and  _371
REMARK  155  A    between atoms: _371  and  _372
REMARK  156  A    between atoms: _372  and  _373
REMARK  157  A    between atoms: _377  and  _379
REMARK  158  A    between atoms: _379  and  _380
REMARK  159  A    between atoms: _379  and  _382
REMARK  160  A    between atoms: _382  and  _383
REMARK  161  A    between atoms: _383  and  _384
REMARK  162  A    between atoms: _386  and  _388
REMARK  163  A    between atoms: _388  and  _389
REMARK  164  A    between atoms: _388  and  _391
REMARK  165  A    between atoms: _391  and  _392
REMARK  166  A    between atoms: _395  and  _397
REMARK  167  A    between atoms: _397  and  _398
REMARK  168  A    between atoms: _400  and  _402
REMARK  169  A    between atoms: _402  and  _403
REMARK  170  A    between atoms: _405  and  _407
REMARK  171  A    between atoms: _407  and  _408
REMARK  172  A    between atoms: _407  and  _410
REMARK  173  A    between atoms: _410  and  _411
REMARK  174  A    between atoms: _414  and  _416
REMARK  175  A    between atoms: _416  and  _417
REMARK  176  A    between atoms: _419  and  _421
REMARK  177  A    between atoms: _421  and  _422
REMARK  178  A    between atoms: _424  and  _426
REMARK  179  A    between atoms: _426  and  _427
REMARK  180  A    between atoms: _426  and  _429
REMARK  181  A    between atoms: _429  and  _430
REMARK  182  A    between atoms: _433  and  _435
REMARK  183  A    between atoms: _435  and  _436
REMARK  184  A    between atoms: _435  and  _438
REMARK  185  A    between atoms: _441  and  _443
REMARK  186  A    between atoms: _443  and  _444
REMARK  187  A    between atoms: _443  and  _446
REMARK  188  A    between atoms: _446  and  _447
REMARK  189  A    between atoms: _451  and  _452
REMARK  190  A    between atoms: _457  and  _459
REMARK  191  A    between atoms: _459  and  _460
REMARK  192  A    between atoms: _459  and  _462
REMARK  193  A    between atoms: _462  and  _463
REMARK  194  A    between atoms: _467  and  _468
REMARK  195  A    between atoms: _473  and  _475
REMARK  196  A    between atoms: _475  and  _476
REMARK  197  A    between atoms: _479  and  _481
REMARK  198  A    between atoms: _481  and  _482
REMARK  199  A    between atoms: _481  and  _484
REMARK  200  A    between atoms: _484  and  _485
REMARK  201  A    between atoms: _490  and  _492
REMARK  202  A    between atoms: _492  and  _493
REMARK  203  A    between atoms: _492  and  _495
REMARK  204  A    between atoms: _495  and  _496
REMARK  205  A    between atoms: _499  and  _501
REMARK  206  A    between atoms: _501  and  _502
REMARK  207  A    between atoms: _501  and  _504
REMARK  208  A    between atoms: _504  and  _505
REMARK  209  A    between atoms: _508  and  _510
REMARK  210  A    between atoms: _510  and  _511
REMARK  211  A    between atoms: _513  and  _515
REMARK  212  A    between atoms: _515  and  _516
REMARK  213  A    between atoms: _515  and  _518
REMARK  214  A    between atoms: _518  and  _519
REMARK  215  A    between atoms: _519  and  _520
REMARK  216  A    between atoms: _520  and  _521
REMARK  217  A    between atoms: _530  and  _532
REMARK  218  A    between atoms: _532  and  _533
REMARK  219  A    between atoms: _532  and  _535
REMARK  220  A    between atoms: _535  and  _536
REMARK                            x       y       z     vdW  Elec       q    Type
REMARK                         _______ _______ _______ _____ _____    ______ ____
ROOT
ATOM      1  O   HOH     1      20.447 -21.676 -13.980  0.00  0.00    +0.000 OA
ENDROOT
TORSDOF 0
REMARK  Name = ../refined-set-2016/4hdf/4hdf_pocket.pdb
REMARK  220 active torsions:
REMARK  status: ('A' for Active; 'I' for Inactive)
REMARK    1  A    between atoms: _1  and  _3
REMARK    2  A    between atoms: _3  and  _4
REMARK    3  A    between atoms: _3  and  _6
REMARK    4  A    between atoms: _6  and  _7
REMARK    5  A    between atoms: _7  and  _8
REMARK    6  A    between atoms: _8  and  _9
REMARK    7  A    between atoms: _18  and  _20
REMARK    8  A    between atoms: _20  and  _21
REMARK    9  A    between atoms: _20  and  _23
REMARK   10  A    between atoms: _23  and  _24
REMARK   11  A    between atoms: _27  and  _29
REMARK   12  A    between atoms: _29  and  _30
REMARK   13  A    between atoms: _29  and  _32
REMARK   14  A    between atoms: _32  and  _33
REMARK   15  A    between atoms: _36  and  _38
REMARK   16  A    between atoms: _38  and  _39
REMARK   17  A    between atoms: _38  and  _41
REMARK   18  A    between atoms: _41  and  _42
REMARK   19  A    between atoms: _45  and  _47
REMARK   20  A    between atoms: _47  and  _48
REMARK   21  A    between atoms: _47  and  _50
REMARK   22  A    between atoms: _50  and  _51
REMARK   23  A    between atoms: _54  and  _56
REMARK   24  A    between atoms: _56  and  _57
REMARK   25  A    between atoms: _59  and  _61
REMARK   26  A    between atoms: _61  and  _62
REMARK   27  A    between atoms: _65  and  _67
REMARK   28  A    between atoms: _67  and  _68
REMARK   29  A    between atoms: _67  and  _70
REMARK   30  A    between atoms: _70  and  _71
REMARK   31  A    between atoms: _74  and  _76
REMARK   32  A    between atoms: _76  and  _77
REMARK   33  A    between atoms: _76  and  _79
REMARK   34  A    between atoms: _79  and  _80
REMARK   35  A    between atoms: _83  and  _85
REMARK   36  A    between atoms: _85  and  _86
REMARK   37  A    between atoms: _85  and  _88
REMARK   38  A    between atoms: _88  and  _89
REMARK   39  A    between atoms: _92  and  _94
REMARK   40  A    between atoms: _94  and  _95
REMARK   41  A    between atoms: _94  and  _97
REMARK   42  A    between atoms: _100  and  _102
REMARK   43  A    between atoms: _102  and  _103
REMARK   44  A    between atoms: _102  and  _105
REMARK   45  A    between atoms: _105  and  _106
REMARK   46  A    between atoms: _106  and  _107
REMARK   47  A    between atoms: _107  and  _108
REMARK   48  A    between atoms: _108  and  _109
REMARK   49  A    between atoms: _113  and  _115
REMARK   50  A    between atoms: _115  and  _116
REMARK   51  A    between atoms: _115  and  _118
REMARK   52  A    between atoms: _118  and  _119
REMARK   53  A    between atoms: _119  and  _120
REMARK   54  A    between atoms: _122  and  _124
REMARK   55  A    between atoms: _124  and  _125
REMARK   56  A    between atoms: _124  and  _127
REMARK   57  A    between atoms: _127  and  _128
REMARK   58  A    between atoms: _131  and  _133
REMARK   59  A    between atoms: _133  and  _134
REMARK   60  A    between atoms: _136  and  _138
REMARK   61  A    between atoms: _138  and  _139
REMARK   62  A    between atoms: _141  and  _143
REMARK   63  A    between atoms: _143  and  _144
REMARK   64  A    between atoms: _143  and  _146
REMARK   65  A    between atoms: _146  and  _147
REMARK   66  A    between atoms: _150  and  _152
REMARK   67  A    between atoms: _152  and  _153
REMARK   68  A    between atoms: _155  and  _157
REMARK   69  A    between atoms: _157  and  _158
REMARK   70  A    between atoms: _160  and  _162
REMARK   71  A    between atoms: _162  and  _163
REMARK   72  A    between atoms: _162  and  _165
REMARK   73  A    between atoms: _165  and  _166
REMARK   74  A    between atoms: _172  and  _174
REMARK   75  A    between atoms: _174  and  _175
REMARK   76  A    between atoms: _174  and  _177
REMARK   77  A    between atoms: _177  and  _178
REMARK   78  A    between atoms: _181  and  _183
REMARK   79  A    between atoms: _183  and  _184
REMARK   80  A    between atoms: _183  and  _186
REMARK   81  A    between atoms: _186  and  _187
REMARK   82  A    between atoms: _190  and  _192
REMARK   83  A    between atoms: _192  and  _193
REMARK   84  A    between atoms: _192  and  _195
REMARK   85  A    between atoms: _195  and  _196
REMARK   86  A    between atoms: _200  and  _201
REMARK   87  A    between atoms: _206  and  _208
REMARK   88  A    between atoms: _208  and  _209
REMARK   89  A    between atoms: _212  and  _214
REMARK   90  A    between atoms: _214  and  _215
REMARK   91  A    between atoms: _214  and  _217
REMARK   92  A    between atoms: _217  and  _218
REMARK   93  A    between atoms: _223  and  _225
REMARK   94  A    between atoms: _225  and  _226
REMARK   95  A    between atoms: _225  and  _228
REMARK   96  A    between atoms: _228  and  _229
REMARK   97  A    between atoms: _232  and  _234
REMARK   98  A    between atoms: _234  and  _235
REMARK   99  A    between atoms: _237  and  _239
REMARK  100  A    between atoms: _239  and  _240
REMARK  101  A    between atoms: _239  and  _242
REMARK  102  A    between atoms: _242  and  _243
REMARK  103  A    between atoms: _243  and  _244
REMARK  104  A    between atoms: _244  and  _245
REMARK  105  A    between atoms: _254  and  _256
REMARK  106  A    between atoms: _256  and  _257
REMARK  107  A    between atoms: _256  and  _259
REMARK  108  A    between atoms: _259  and  _260
REMARK  109  A    between atoms: _265  and  _267
REMARK  110  A    between atoms: _267  and  _268
REMARK  111  A    between atoms: _267  and  _270
REMARK  112  A    between atoms: _270  and  _271
REMARK  113  A    between atoms: _271  and  _272
REMARK  114  A    between atoms: _272  and  _273
REMARK  115  A    between atoms: _282  and  _284
REMARK  116  A    between atoms: _284  and  _285
REMARK  117  A    between atoms: _284  and  _287
REMARK  118  A    between atoms: _287  and  _288
REMARK  119  A    between atoms: _291  and  _293
REMARK  120  A    between atoms: _293  and  _294
REMARK  121  A    between atoms: _293  and  _296
REMARK  122  A    between atoms: _296  and  _297
REMARK  123  A    between atoms: _300  and  _302
REMARK  124  A    between atoms: _302  and  _303
REMARK  125  A    between atoms: _302  and  _305
REMARK  126  A    between atoms: _305  and  _306
REMARK  127  A    between atoms: _309  and  _311
REMARK  128  A    between atoms: _311  and  _312
REMARK  129  A    between atoms: _311  and  _314
REMARK  130  A    between atoms: _314  and  _315
REMARK  131  A    between atoms: _318  and  _320
REMARK  132  A    between atoms: _320  and  _321
REMARK  133  A    between atoms: _323  and  _325
REMARK  134  A    between atoms: _325  and  _326
REMARK  135  A    between atoms: _329  and  _331
REMARK  136  A    between atoms: _331  and  _332
REMARK  137  A    between atoms: _331  and  _334
REMARK  138  A    between atoms: _334  and  _335
REMARK  139  A    between atoms: _338  and  _340
REMARK  140  A    between atoms: _340  and  _341
REMARK  141  A    between atoms: _340  and  _343
REMARK  142  A    between atoms: _343  and  _344
REMARK  143  A    between atoms: _347  and  _349
REMARK  144  A    between atoms: _349  and  _350
REMARK  145  A    between atoms: _349  and  _352
REMARK  146  A    between atoms: _352  and  _353
REMARK  147  A    between atoms: _356  and  _358
REMARK  148  A    between atoms: _358  and  _359
REMARK  149  A    between atoms: _358  and  _361
REMARK  150  A    between atoms: _364  and  _366
REMARK  151  A    between atoms: _366  and  _367
REMARK  152  A    between atoms: _366  and  _369
REMARK  153  A    between atoms: _369  and  _370
REMARK  154  A    between atoms: _370  and  _371
REMARK  155  A    between atoms: _371  and  _372
REMARK  156  A    between atoms: _372  and  _373
REMARK  157  A    between atoms: _377  and  _379
REMARK  158  A    between atoms: _379  and  _380
REMARK  159  A    between atoms: _379  and  _382
REMARK  160  A    between atoms: _382  and  _383
REMARK  161  A    between atoms: _383  and  _384
REMARK  162  A    between atoms: _386  and  _388
REMARK  163  A    between atoms: _388  and  _389
REMARK  164  A    between atoms: _388  and  _391
REMARK  165  A    between atoms: _391  and  _392
REMARK  166  A    between atoms: _395  and  _397
REMARK  167  A    between atoms: _397  and  _398
REMARK  168  A    between atoms: _400  and  _402
REMARK  169  A    between atoms: _402  and  _403
REMARK  170  A    between atoms: _405  and  _407
REMARK  171  A    between atoms: _407  and  _408
REMARK  172  A    between atoms: _407  and  _410
REMARK  173  A    between atoms: _410  and  _411
REMARK  174  A    between atoms: _414  and  _416
REMARK  175  A    between atoms: _416  and  _417
REMARK  176  A    between atoms: _419  and  _421
REMARK  177  A    between atoms: _421  and  _422
REMARK  178  A    between atoms: _424  and  _426
REMARK  179  A    between atoms: _426  and  _427
REMARK  180  A    between atoms: _426  and  _429
REMARK  181  A    between atoms: _429  and  _430
REMARK  182  A    between atoms: _433  and  _435
REMARK  183  A    between atoms: _435  and  _436
REMARK  184  A    between atoms: _435  and  _438
REMARK  185  A    between atoms: _441  and  _443
REMARK  186  A    between atoms: _443  and  _444
REMARK  187  A    between atoms: _443  and  _446
REMARK  188  A    between atoms: _446  and  _447
REMARK  189  A    between atoms: _451  and  _452
REMARK  190  A    between atoms: _457  and  _459
REMARK  191  A    between atoms: _459  and  _460
REMARK  192  A    between atoms: _459  and  _462
REMARK  193  A    between atoms: _462  and  _463
REMARK  194  A    between atoms: _467  and  _468
REMARK  195  A    between atoms: _473  and  _475
REMARK  196  A    between atoms: _475  and  _476
REMARK  197  A    between atoms: _479  and  _481
REMARK  198  A    between atoms: _481  and  _482
REMARK  199  A    between atoms: _481  and  _484
REMARK  200  A    between atoms: _484  and  _485
REMARK  201  A    between atoms: _490  and  _492
REMARK  202  A    between atoms: _492  and  _493
REMARK  203  A    between atoms: _492  and  _495
REMARK  204  A    between atoms: _495  and  _496
REMARK  205  A    between atoms: _499  and  _501
REMARK  206  A    between atoms: _501  and  _502
REMARK  207  A    between atoms: _501  and  _504
REMARK  208  A    between atoms: _504  and  _505
REMARK  209  A    between atoms: _508  and  _510
REMARK  210  A    between atoms: _510  and  _511
REMARK  211  A    between atoms: _513  and  _515
REMARK  212  A    between atoms: _515  and  _516
REMARK  213  A    between atoms: _515  and  _518
REMARK  214  A    between atoms: _518  and  _519
REMARK  215  A    between atoms: _519  and  _520
REMARK  216  A    between atoms: _520  and  _521
REMARK  217  A    between atoms: _530  and  _532
REMARK  218  A    between atoms: _532  and  _533
REMARK  219  A    between atoms: _532  and  _535
REMARK  220  A    between atoms: _535  and  _536
REMARK                            x       y       z     vdW  Elec       q    Type
REMARK                         _______ _______ _______ _____ _____    ______ ____
ROOT
ATOM      1  O   HOH     1      16.027 -27.138 -12.128  0.00  0.00    +0.000 OA
ENDROOT
TORSDOF 0
REMARK  Name = ../refined-set-2016/4hdf/4hdf_pocket.pdb
REMARK  220 active torsions:
REMARK  status: ('A' for Active; 'I' for Inactive)
REMARK    1  A    between atoms: _1  and  _3
REMARK    2  A    between atoms: _3  and  _4
REMARK    3  A    between atoms: _3  and  _6
REMARK    4  A    between atoms: _6  and  _7
REMARK    5  A    between atoms: _7  and  _8
REMARK    6  A    between atoms: _8  and  _9
REMARK    7  A    between atoms: _18  and  _20
REMARK    8  A    between atoms: _20  and  _21
REMARK    9  A    between atoms: _20  and  _23
REMARK   10  A    between atoms: _23  and  _24
REMARK   11  A    between atoms: _27  and  _29
REMARK   12  A    between atoms: _29  and  _30
REMARK   13  A    between atoms: _29  and  _32
REMARK   14  A    between atoms: _32  and  _33
REMARK   15  A    between atoms: _36  and  _38
REMARK   16  A    between atoms: _38  and  _39
REMARK   17  A    between atoms: _38  and  _41
REMARK   18  A    between atoms: _41  and  _42
REMARK   19  A    between atoms: _45  and  _47
REMARK   20  A    between atoms: _47  and  _48
REMARK   21  A    between atoms: _47  and  _50
REMARK   22  A    between atoms: _50  and  _51
REMARK   23  A    between atoms: _54  and  _56
REMARK   24  A    between atoms: _56  and  _57
REMARK   25  A    between atoms: _59  and  _61
REMARK   26  A    between atoms: _61  and  _62
REMARK   27  A    between atoms: _65  and  _67
REMARK   28  A    between atoms: _67  and  _68
REMARK   29  A    between atoms: _67  and  _70
REMARK   30  A    between atoms: _70  and  _71
REMARK   31  A    between atoms: _74  and  _76
REMARK   32  A    between atoms: _76  and  _77
REMARK   33  A    between atoms: _76  and  _79
REMARK   34  A    between atoms: _79  and  _80
REMARK   35  A    between atoms: _83  and  _85
REMARK   36  A    between atoms: _85  and  _86
REMARK   37  A    between atoms: _85  and  _88
REMARK   38  A    between atoms: _88  and  _89
REMARK   39  A    between atoms: _92  and  _94
REMARK   40  A    between atoms: _94  and  _95
REMARK   41  A    between atoms: _94  and  _97
REMARK   42  A    between atoms: _100  and  _102
REMARK   43  A    between atoms: _102  and  _103
REMARK   44  A    between atoms: _102  and  _105
REMARK   45  A    between atoms: _105  and  _106
REMARK   46  A    between atoms: _106  and  _107
REMARK   47  A    between atoms: _107  and  _108
REMARK   48  A    between atoms: _108  and  _109
REMARK   49  A    between atoms: _113  and  _115
REMARK   50  A    between atoms: _115  and  _116
REMARK   51  A    between atoms: _115  and  _118
REMARK   52  A    between atoms: _118  and  _119
REMARK   53  A    between atoms: _119  and  _120
REMARK   54  A    between atoms: _122  and  _124
REMARK   55  A    between atoms: _124  and  _125
REMARK   56  A    between atoms: _124  and  _127
REMARK   57  A    between atoms: _127  and  _128
REMARK   58  A    between atoms: _131  and  _133
REMARK   59  A    between atoms: _133  and  _134
REMARK   60  A    between atoms: _136  and  _138
REMARK   61  A    between atoms: _138  and  _139
REMARK   62  A    between atoms: _141  and  _143
REMARK   63  A    between atoms: _143  and  _144
REMARK   64  A    between atoms: _143  and  _146
REMARK   65  A    between atoms: _146  and  _147
REMARK   66  A    between atoms: _150  and  _152
REMARK   67  A    between atoms: _152  and  _153
REMARK   68  A    between atoms: _155  and  _157
REMARK   69  A    between atoms: _157  and  _158
REMARK   70  A    between atoms: _160  and  _162
REMARK   71  A    between atoms: _162  and  _163
REMARK   72  A    between atoms: _162  and  _165
REMARK   73  A    between atoms: _165  and  _166
REMARK   74  A    between atoms: _172  and  _174
REMARK   75  A    between atoms: _174  and  _175
REMARK   76  A    between atoms: _174  and  _177
REMARK   77  A    between atoms: _177  and  _178
REMARK   78  A    between atoms: _181  and  _183
REMARK   79  A    between atoms: _183  and  _184
REMARK   80  A    between atoms: _183  and  _186
REMARK   81  A    between atoms: _186  and  _187
REMARK   82  A    between atoms: _190  and  _192
REMARK   83  A    between atoms: _192  and  _193
REMARK   84  A    between atoms: _192  and  _195
REMARK   85  A    between atoms: _195  and  _196
REMARK   86  A    between atoms: _200  and  _201
REMARK   87  A    between atoms: _206  and  _208
REMARK   88  A    between atoms: _208  and  _209
REMARK   89  A    between atoms: _212  and  _214
REMARK   90  A    between atoms: _214  and  _215
REMARK   91  A    between atoms: _214  and  _217
REMARK   92  A    between atoms: _217  and  _218
REMARK   93  A    between atoms: _223  and  _225
REMARK   94  A    between atoms: _225  and  _226
REMARK   95  A    between atoms: _225  and  _228
REMARK   96  A    between atoms: _228  and  _229
REMARK   97  A    between atoms: _232  and  _234
REMARK   98  A    between atoms: _234  and  _235
REMARK   99  A    between atoms: _237  and  _239
REMARK  100  A    between atoms: _239  and  _240
REMARK  101  A    between atoms: _239  and  _242
REMARK  102  A    between atoms: _242  and  _243
REMARK  103  A    between atoms: _243  and  _244
REMARK  104  A    between atoms: _244  and  _245
REMARK  105  A    between atoms: _254  and  _256
REMARK  106  A    between atoms: _256  and  _257
REMARK  107  A    between atoms: _256  and  _259
REMARK  108  A    between atoms: _259  and  _260
REMARK  109  A    between atoms: _265  and  _267
REMARK  110  A    between atoms: _267  and  _268
REMARK  111  A    between atoms: _267  and  _270
REMARK  112  A    between atoms: _270  and  _271
REMARK  113  A    between atoms: _271  and  _272
REMARK  114  A    between atoms: _272  and  _273
REMARK  115  A    between atoms: _282  and  _284
REMARK  116  A    between atoms: _284  and  _285
REMARK  117  A    between atoms: _284  and  _287
REMARK  118  A    between atoms: _287  and  _288
REMARK  119  A    between atoms: _291  and  _293
REMARK  120  A    between atoms: _293  and  _294
REMARK  121  A    between atoms: _293  and  _296
REMARK  122  A    between atoms: _296  and  _297
REMARK  123  A    between atoms: _300  and  _302
REMARK  124  A    between atoms: _302  and  _303
REMARK  125  A    between atoms: _302  and  _305
REMARK  126  A    between atoms: _305  and  _306
REMARK  127  A    between atoms: _309  and  _311
REMARK  128  A    between atoms: _311  and  _312
REMARK  129  A    between atoms: _311  and  _314
REMARK  130  A    between atoms: _314  and  _315
REMARK  131  A    between atoms: _318  and  _320
REMARK  132  A    between atoms: _320  and  _321
REMARK  133  A    between atoms: _323  and  _325
REMARK  134  A    between atoms: _325  and  _326
REMARK  135  A    between atoms: _329  and  _331
REMARK  136  A    between atoms: _331  and  _332
REMARK  137  A    between atoms: _331  and  _334
REMARK  138  A    between atoms: _334  and  _335
REMARK  139  A    between atoms: _338  and  _340
REMARK  140  A    between atoms: _340  and  _341
REMARK  141  A    between atoms: _340  and  _343
REMARK  142  A    between atoms: _343  and  _344
REMARK  143  A    between atoms: _347  and  _349
REMARK  144  A    between atoms: _349  and  _350
REMARK  145  A    between atoms: _349  and  _352
REMARK  146  A    between atoms: _352  and  _353
REMARK  147  A    between atoms: _356  and  _358
REMARK  148  A    between atoms: _358  and  _359
REMARK  149  A    between atoms: _358  and  _361
REMARK  150  A    between atoms: _364  and  _366
REMARK  151  A    between atoms: _366  and  _367
REMARK  152  A    between atoms: _366  and  _369
REMARK  153  A    between atoms: _369  and  _370
REMARK  154  A    between atoms: _370  and  _371
REMARK  155  A    between atoms: _371  and  _372
REMARK  156  A    between atoms: _372  and  _373
REMARK  157  A    between atoms: _377  and  _379
REMARK  158  A    between atoms: _379  and  _380
REMARK  159  A    between atoms: _379  and  _382
REMARK  160  A    between atoms: _382  and  _383
REMARK  161  A    between atoms: _383  and  _384
REMARK  162  A    between atoms: _386  and  _388
REMARK  163  A    between atoms: _388  and  _389
REMARK  164  A    between atoms: _388  and  _391
REMARK  165  A    between atoms: _391  and  _392
REMARK  166  A    between atoms: _395  and  _397
REMARK  167  A    between atoms: _397  and  _398
REMARK  168  A    between atoms: _400  and  _402
REMARK  169  A    between atoms: _402  and  _403
REMARK  170  A    between atoms: _405  and  _407
REMARK  171  A    between atoms: _407  and  _408
REMARK  172  A    between atoms: _407  and  _410
REMARK  173  A    between atoms: _410  and  _411
REMARK  174  A    between atoms: _414  and  _416
REMARK  175  A    between atoms: _416  and  _417
REMARK  176  A    between atoms: _419  and  _421
REMARK  177  A    between atoms: _421  and  _422
REMARK  178  A    between atoms: _424  and  _426
REMARK  179  A    between atoms: _426  and  _427
REMARK  180  A    between atoms: _426  and  _429
REMARK  181  A    between atoms: _429  and  _430
REMARK  182  A    between atoms: _433  and  _435
REMARK  183  A    between atoms: _435  and  _436
REMARK  184  A    between atoms: _435  and  _438
REMARK  185  A    between atoms: _441  and  _443
REMARK  186  A    between atoms: _443  and  _444
REMARK  187  A    between atoms: _443  and  _446
REMARK  188  A    between atoms: _446  and  _447
REMARK  189  A    between atoms: _451  and  _452
REMARK  190  A    between atoms: _457  and  _459
REMARK  191  A    between atoms: _459  and  _460
REMARK  192  A    between atoms: _459  and  _462
REMARK  193  A    between atoms: _462  and  _463
REMARK  194  A    between atoms: _467  and  _468
REMARK  195  A    between atoms: _473  and  _475
REMARK  196  A    between atoms: _475  and  _476
REMARK  197  A    between atoms: _479  and  _481
REMARK  198  A    between atoms: _481  and  _482
REMARK  199  A    between atoms: _481  and  _484
REMARK  200  A    between atoms: _484  and  _485
REMARK  201  A    between atoms: _490  and  _492
REMARK  202  A    between atoms: _492  and  _493
REMARK  203  A    between atoms: _492  and  _495
REMARK  204  A    between atoms: _495  and  _496
REMARK  205  A    between atoms: _499  and  _501
REMARK  206  A    between atoms: _501  and  _502
REMARK  207  A    between atoms: _501  and  _504
REMARK  208  A    between atoms: _504  and  _505
REMARK  209  A    between atoms: _508  and  _510
REMARK  210  A    between atoms: _510  and  _511
REMARK  211  A    between atoms: _513  and  _515
REMARK  212  A    between atoms: _515  and  _516
REMARK  213  A    between atoms: _515  and  _518
REMARK  214  A    between atoms: _518  and  _519
REMARK  215  A    between atoms: _519  and  _520
REMARK  216  A    between atoms: _520  and  _521
REMARK  217  A    between atoms: _530  and  _532
REMARK  218  A    between atoms: _532  and  _533
REMARK  219  A    between atoms: _532  and  _535
REMARK  220  A    between atoms: _535  and  _536
REMARK                            x       y       z     vdW  Elec       q    Type
REMARK                         _______ _______ _______ _____ _____    ______ ____
ROOT
ATOM      1  O   HOH     1      24.936 -24.079 -22.877  0.00  0.00    +0.000 OA
ENDROOT
TORSDOF 0
REMARK  Name = ../refined-set-2016/4hdf/4hdf_pocket.pdb
REMARK  220 active torsions:
REMARK  status: ('A' for Active; 'I' for Inactive)
REMARK    1  A    between atoms: _1  and  _3
REMARK    2  A    between atoms: _3  and  _4
REMARK    3  A    between atoms: _3  and  _6
REMARK    4  A    between atoms: _6  and  _7
REMARK    5  A    between atoms: _7  and  _8
REMARK    6  A    between atoms: _8  and  _9
REMARK    7  A    between atoms: _18  and  _20
REMARK    8  A    between atoms: _20  and  _21
REMARK    9  A    between atoms: _20  and  _23
REMARK   10  A    between atoms: _23  and  _24
REMARK   11  A    between atoms: _27  and  _29
REMARK   12  A    between atoms: _29  and  _30
REMARK   13  A    between atoms: _29  and  _32
REMARK   14  A    between atoms: _32  and  _33
REMARK   15  A    between atoms: _36  and  _38
REMARK   16  A    between atoms: _38  and  _39
REMARK   17  A    between atoms: _38  and  _41
REMARK   18  A    between atoms: _41  and  _42
REMARK   19  A    between atoms: _45  and  _47
REMARK   20  A    between atoms: _47  and  _48
REMARK   21  A    between atoms: _47  and  _50
REMARK   22  A    between atoms: _50  and  _51
REMARK   23  A    between atoms: _54  and  _56
REMARK   24  A    between atoms: _56  and  _57
REMARK   25  A    between atoms: _59  and  _61
REMARK   26  A    between atoms: _61  and  _62
REMARK   27  A    between atoms: _65  and  _67
REMARK   28  A    between atoms: _67  and  _68
REMARK   29  A    between atoms: _67  and  _70
REMARK   30  A    between atoms: _70  and  _71
REMARK   31  A    between atoms: _74  and  _76
REMARK   32  A    between atoms: _76  and  _77
REMARK   33  A    between atoms: _76  and  _79
REMARK   34  A    between atoms: _79  and  _80
REMARK   35  A    between atoms: _83  and  _85
REMARK   36  A    between atoms: _85  and  _86
REMARK   37  A    between atoms: _85  and  _88
REMARK   38  A    between atoms: _88  and  _89
REMARK   39  A    between atoms: _92  and  _94
REMARK   40  A    between atoms: _94  and  _95
REMARK   41  A    between atoms: _94  and  _97
REMARK   42  A    between atoms: _100  and  _102
REMARK   43  A    between atoms: _102  and  _103
REMARK   44  A    between atoms: _102  and  _105
REMARK   45  A    between atoms: _105  and  _106
REMARK   46  A    between atoms: _106  and  _107
REMARK   47  A    between atoms: _107  and  _108
REMARK   48  A    between atoms: _108  and  _109
REMARK   49  A    between atoms: _113  and  _115
REMARK   50  A    between atoms: _115  and  _116
REMARK   51  A    between atoms: _115  and  _118
REMARK   52  A    between atoms: _118  and  _119
REMARK   53  A    between atoms: _119  and  _120
REMARK   54  A    between atoms: _122  and  _124
REMARK   55  A    between atoms: _124  and  _125
REMARK   56  A    between atoms: _124  and  _127
REMARK   57  A    between atoms: _127  and  _128
REMARK   58  A    between atoms: _131  and  _133
REMARK   59  A    between atoms: _133  and  _134
REMARK   60  A    between atoms: _136  and  _138
REMARK   61  A    between atoms: _138  and  _139
REMARK   62  A    between atoms: _141  and  _143
REMARK   63  A    between atoms: _143  and  _144
REMARK   64  A    between atoms: _143  and  _146
REMARK   65  A    between atoms: _146  and  _147
REMARK   66  A    between atoms: _150  and  _152
REMARK   67  A    between atoms: _152  and  _153
REMARK   68  A    between atoms: _155  and  _157
REMARK   69  A    between atoms: _157  and  _158
REMARK   70  A    between atoms: _160  and  _162
REMARK   71  A    between atoms: _162  and  _163
REMARK   72  A    between atoms: _162  and  _165
REMARK   73  A    between atoms: _165  and  _166
REMARK   74  A    between atoms: _172  and  _174
REMARK   75  A    between atoms: _174  and  _175
REMARK   76  A    between atoms: _174  and  _177
REMARK   77  A    between atoms: _177  and  _178
REMARK   78  A    between atoms: _181  and  _183
REMARK   79  A    between atoms: _183  and  _184
REMARK   80  A    between atoms: _183  and  _186
REMARK   81  A    between atoms: _186  and  _187
REMARK   82  A    between atoms: _190  and  _192
REMARK   83  A    between atoms: _192  and  _193
REMARK   84  A    between atoms: _192  and  _195
REMARK   85  A    between atoms: _195  and  _196
REMARK   86  A    between atoms: _200  and  _201
REMARK   87  A    between atoms: _206  and  _208
REMARK   88  A    between atoms: _208  and  _209
REMARK   89  A    between atoms: _212  and  _214
REMARK   90  A    between atoms: _214  and  _215
REMARK   91  A    between atoms: _214  and  _217
REMARK   92  A    between atoms: _217  and  _218
REMARK   93  A    between atoms: _223  and  _225
REMARK   94  A    between atoms: _225  and  _226
REMARK   95  A    between atoms: _225  and  _228
REMARK   96  A    between atoms: _228  and  _229
REMARK   97  A    between atoms: _232  and  _234
REMARK   98  A    between atoms: _234  and  _235
REMARK   99  A    between atoms: _237  and  _239
REMARK  100  A    between atoms: _239  and  _240
REMARK  101  A    between atoms: _239  and  _242
REMARK  102  A    between atoms: _242  and  _243
REMARK  103  A    between atoms: _243  and  _244
REMARK  104  A    between atoms: _244  and  _245
REMARK  105  A    between atoms: _254  and  _256
REMARK  106  A    between atoms: _256  and  _257
REMARK  107  A    between atoms: _256  and  _259
REMARK  108  A    between atoms: _259  and  _260
REMARK  109  A    between atoms: _265  and  _267
REMARK  110  A    between atoms: _267  and  _268
REMARK  111  A    between atoms: _267  and  _270
REMARK  112  A    between atoms: _270  and  _271
REMARK  113  A    between atoms: _271  and  _272
REMARK  114  A    between atoms: _272  and  _273
REMARK  115  A    between atoms: _282  and  _284
REMARK  116  A    between atoms: _284  and  _285
REMARK  117  A    between atoms: _284  and  _287
REMARK  118  A    between atoms: _287  and  _288
REMARK  119  A    between atoms: _291  and  _293
REMARK  120  A    between atoms: _293  and  _294
REMARK  121  A    between atoms: _293  and  _296
REMARK  122  A    between atoms: _296  and  _297
REMARK  123  A    between atoms: _300  and  _302
REMARK  124  A    between atoms: _302  and  _303
REMARK  125  A    between atoms: _302  and  _305
REMARK  126  A    between atoms: _305  and  _306
REMARK  127  A    between atoms: _309  and  _311
REMARK  128  A    between atoms: _311  and  _312
REMARK  129  A    between atoms: _311  and  _314
REMARK  130  A    between atoms: _314  and  _315
REMARK  131  A    between atoms: _318  and  _320
REMARK  132  A    between atoms: _320  and  _321
REMARK  133  A    between atoms: _323  and  _325
REMARK  134  A    between atoms: _325  and  _326
REMARK  135  A    between atoms: _329  and  _331
REMARK  136  A    between atoms: _331  and  _332
REMARK  137  A    between atoms: _331  and  _334
REMARK  138  A    between atoms: _334  and  _335
REMARK  139  A    between atoms: _338  and  _340
REMARK  140  A    between atoms: _340  and  _341
REMARK  141  A    between atoms: _340  and  _343
REMARK  142  A    between atoms: _343  and  _344
REMARK  143  A    between atoms: _347  and  _349
REMARK  144  A    between atoms: _349  and  _350
REMARK  145  A    between atoms: _349  and  _352
REMARK  146  A    between atoms: _352  and  _353
REMARK  147  A    between atoms: _356  and  _358
REMARK  148  A    between atoms: _358  and  _359
REMARK  149  A    between atoms: _358  and  _361
REMARK  150  A    between atoms: _364  and  _366
REMARK  151  A    between atoms: _366  and  _367
REMARK  152  A    between atoms: _366  and  _369
REMARK  153  A    between atoms: _369  and  _370
REMARK  154  A    between atoms: _370  and  _371
REMARK  155  A    between atoms: _371  and  _372
REMARK  156  A    between atoms: _372  and  _373
REMARK  157  A    between atoms: _377  and  _379
REMARK  158  A    between atoms: _379  and  _380
REMARK  159  A    between atoms: _379  and  _382
REMARK  160  A    between atoms: _382  and  _383
REMARK  161  A    between atoms: _383  and  _384
REMARK  162  A    between atoms: _386  and  _388
REMARK  163  A    between atoms: _388  and  _389
REMARK  164  A    between atoms: _388  and  _391
REMARK  165  A    between atoms: _391  and  _392
REMARK  166  A    between atoms: _395  and  _397
REMARK  167  A    between atoms: _397  and  _398
REMARK  168  A    between atoms: _400  and  _402
REMARK  169  A    between atoms: _402  and  _403
REMARK  170  A    between atoms: _405  and  _407
REMARK  171  A    between atoms: _407  and  _408
REMARK  172  A    between atoms: _407  and  _410
REMARK  173  A    between atoms: _410  and  _411
REMARK  174  A    between atoms: _414  and  _416
REMARK  175  A    between atoms: _416  and  _417
REMARK  176  A    between atoms: _419  and  _421
REMARK  177  A    between atoms: _421  and  _422
REMARK  178  A    between atoms: _424  and  _426
REMARK  179  A    between atoms: _426  and  _427
REMARK  180  A    between atoms: _426  and  _429
REMARK  181  A    between atoms: _429  and  _430
REMARK  182  A    between atoms: _433  and  _435
REMARK  183  A    between atoms: _435  and  _436
REMARK  184  A    between atoms: _435  and  _438
REMARK  185  A    between atoms: _441  and  _443
REMARK  186  A    between atoms: _443  and  _444
REMARK  187  A    between atoms: _443  and  _446
REMARK  188  A    between atoms: _446  and  _447
REMARK  189  A    between atoms: _451  and  _452
REMARK  190  A    between atoms: _457  and  _459
REMARK  191  A    between atoms: _459  and  _460
REMARK  192  A    between atoms: _459  and  _462
REMARK  193  A    between atoms: _462  and  _463
REMARK  194  A    between atoms: _467  and  _468
REMARK  195  A    between atoms: _473  and  _475
REMARK  196  A    between atoms: _475  and  _476
REMARK  197  A    between atoms: _479  and  _481
REMARK  198  A    between atoms: _481  and  _482
REMARK  199  A    between atoms: _481  and  _484
REMARK  200  A    between atoms: _484  and  _485
REMARK  201  A    between atoms: _490  and  _492
REMARK  202  A    between atoms: _492  and  _493
REMARK  203  A    between atoms: _492  and  _495
REMARK  204  A    between atoms: _495  and  _496
REMARK  205  A    between atoms: _499  and  _501
REMARK  206  A    between atoms: _501  and  _502
REMARK  207  A    between atoms: _501  and  _504
REMARK  208  A    between atoms: _504  and  _505
REMARK  209  A    between atoms: _508  and  _510
REMARK  210  A    between atoms: _510  and  _511
REMARK  211  A    between atoms: _513  and  _515
REMARK  212  A    between atoms: _515  and  _516
REMARK  213  A    between atoms: _515  and  _518
REMARK  214  A    between atoms: _518  and  _519
REMARK  215  A    between atoms: _519  and  _520
REMARK  216  A    between atoms: _520  and  _521
REMARK  217  A    between atoms: _530  and  _532
REMARK  218  A    between atoms: _532  and  _533
REMARK  219  A    between atoms: _532  and  _535
REMARK  220  A    between atoms: _535  and  _536
REMARK                            x       y       z     vdW  Elec       q    Type
REMARK                         _______ _______ _______ _____ _____    ______ ____
ROOT
ATOM      1  O   HOH     1       7.190 -16.333 -25.498  0.00  0.00    +0.000 OA
ENDROOT
TORSDOF 0
REMARK  Name = ../refined-set-2016/4hdf/4hdf_pocket.pdb
REMARK  220 active torsions:
REMARK  status: ('A' for Active; 'I' for Inactive)
REMARK    1  A    between atoms: _1  and  _3
REMARK    2  A    between atoms: _3  and  _4
REMARK    3  A    between atoms: _3  and  _6
REMARK    4  A    between atoms: _6  and  _7
REMARK    5  A    between atoms: _7  and  _8
REMARK    6  A    between atoms: _8  and  _9
REMARK    7  A    between atoms: _18  and  _20
REMARK    8  A    between atoms: _20  and  _21
REMARK    9  A    between atoms: _20  and  _23
REMARK   10  A    between atoms: _23  and  _24
REMARK   11  A    between atoms: _27  and  _29
REMARK   12  A    between atoms: _29  and  _30
REMARK   13  A    between atoms: _29  and  _32
REMARK   14  A    between atoms: _32  and  _33
REMARK   15  A    between atoms: _36  and  _38
REMARK   16  A    between atoms: _38  and  _39
REMARK   17  A    between atoms: _38  and  _41
REMARK   18  A    between atoms: _41  and  _42
REMARK   19  A    between atoms: _45  and  _47
REMARK   20  A    between atoms: _47  and  _48
REMARK   21  A    between atoms: _47  and  _50
REMARK   22  A    between atoms: _50  and  _51
REMARK   23  A    between atoms: _54  and  _56
REMARK   24  A    between atoms: _56  and  _57
REMARK   25  A    between atoms: _59  and  _61
REMARK   26  A    between atoms: _61  and  _62
REMARK   27  A    between atoms: _65  and  _67
REMARK   28  A    between atoms: _67  and  _68
REMARK   29  A    between atoms: _67  and  _70
REMARK   30  A    between atoms: _70  and  _71
REMARK   31  A    between atoms: _74  and  _76
REMARK   32  A    between atoms: _76  and  _77
REMARK   33  A    between atoms: _76  and  _79
REMARK   34  A    between atoms: _79  and  _80
REMARK   35  A    between atoms: _83  and  _85
REMARK   36  A    between atoms: _85  and  _86
REMARK   37  A    between atoms: _85  and  _88
REMARK   38  A    between atoms: _88  and  _89
REMARK   39  A    between atoms: _92  and  _94
REMARK   40  A    between atoms: _94  and  _95
REMARK   41  A    between atoms: _94  and  _97
REMARK   42  A    between atoms: _100  and  _102
REMARK   43  A    between atoms: _102  and  _103
REMARK   44  A    between atoms: _102  and  _105
REMARK   45  A    between atoms: _105  and  _106
REMARK   46  A    between atoms: _106  and  _107
REMARK   47  A    between atoms: _107  and  _108
REMARK   48  A    between atoms: _108  and  _109
REMARK   49  A    between atoms: _113  and  _115
REMARK   50  A    between atoms: _115  and  _116
REMARK   51  A    between atoms: _115  and  _118
REMARK   52  A    between atoms: _118  and  _119
REMARK   53  A    between atoms: _119  and  _120
REMARK   54  A    between atoms: _122  and  _124
REMARK   55  A    between atoms: _124  and  _125
REMARK   56  A    between atoms: _124  and  _127
REMARK   57  A    between atoms: _127  and  _128
REMARK   58  A    between atoms: _131  and  _133
REMARK   59  A    between atoms: _133  and  _134
REMARK   60  A    between atoms: _136  and  _138
REMARK   61  A    between atoms: _138  and  _139
REMARK   62  A    between atoms: _141  and  _143
REMARK   63  A    between atoms: _143  and  _144
REMARK   64  A    between atoms: _143  and  _146
REMARK   65  A    between atoms: _146  and  _147
REMARK   66  A    between atoms: _150  and  _152
REMARK   67  A    between atoms: _152  and  _153
REMARK   68  A    between atoms: _155  and  _157
REMARK   69  A    between atoms: _157  and  _158
REMARK   70  A    between atoms: _160  and  _162
REMARK   71  A    between atoms: _162  and  _163
REMARK   72  A    between atoms: _162  and  _165
REMARK   73  A    between atoms: _165  and  _166
REMARK   74  A    between atoms: _172  and  _174
REMARK   75  A    between atoms: _174  and  _175
REMARK   76  A    between atoms: _174  and  _177
REMARK   77  A    between atoms: _177  and  _178
REMARK   78  A    between atoms: _181  and  _183
REMARK   79  A    between atoms: _183  and  _184
REMARK   80  A    between atoms: _183  and  _186
REMARK   81  A    between atoms: _186  and  _187
REMARK   82  A    between atoms: _190  and  _192
REMARK   83  A    between atoms: _192  and  _193
REMARK   84  A    between atoms: _192  and  _195
REMARK   85  A    between atoms: _195  and  _196
REMARK   86  A    between atoms: _200  and  _201
REMARK   87  A    between atoms: _206  and  _208
REMARK   88  A    between atoms: _208  and  _209
REMARK   89  A    between atoms: _212  and  _214
REMARK   90  A    between atoms: _214  and  _215
REMARK   91  A    between atoms: _214  and  _217
REMARK   92  A    between atoms: _217  and  _218
REMARK   93  A    between atoms: _223  and  _225
REMARK   94  A    between atoms: _225  and  _226
REMARK   95  A    between atoms: _225  and  _228
REMARK   96  A    between atoms: _228  and  _229
REMARK   97  A    between atoms: _232  and  _234
REMARK   98  A    between atoms: _234  and  _235
REMARK   99  A    between atoms: _237  and  _239
REMARK  100  A    between atoms: _239  and  _240
REMARK  101  A    between atoms: _239  and  _242
REMARK  102  A    between atoms: _242  and  _243
REMARK  103  A    between atoms: _243  and  _244
REMARK  104  A    between atoms: _244  and  _245
REMARK  105  A    between atoms: _254  and  _256
REMARK  106  A    between atoms: _256  and  _257
REMARK  107  A    between atoms: _256  and  _259
REMARK  108  A    between atoms: _259  and  _260
REMARK  109  A    between atoms: _265  and  _267
REMARK  110  A    between atoms: _267  and  _268
REMARK  111  A    between atoms: _267  and  _270
REMARK  112  A    between atoms: _270  and  _271
REMARK  113  A    between atoms: _271  and  _272
REMARK  114  A    between atoms: _272  and  _273
REMARK  115  A    between atoms: _282  and  _284
REMARK  116  A    between atoms: _284  and  _285
REMARK  117  A    between atoms: _284  and  _287
REMARK  118  A    between atoms: _287  and  _288
REMARK  119  A    between atoms: _291  and  _293
REMARK  120  A    between atoms: _293  and  _294
REMARK  121  A    between atoms: _293  and  _296
REMARK  122  A    between atoms: _296  and  _297
REMARK  123  A    between atoms: _300  and  _302
REMARK  124  A    between atoms: _302  and  _303
REMARK  125  A    between atoms: _302  and  _305
REMARK  126  A    between atoms: _305  and  _306
REMARK  127  A    between atoms: _309  and  _311
REMARK  128  A    between atoms: _311  and  _312
REMARK  129  A    between atoms: _311  and  _314
REMARK  130  A    between atoms: _314  and  _315
REMARK  131  A    between atoms: _318  and  _320
REMARK  132  A    between atoms: _320  and  _321
REMARK  133  A    between atoms: _323  and  _325
REMARK  134  A    between atoms: _325  and  _326
REMARK  135  A    between atoms: _329  and  _331
REMARK  136  A    between atoms: _331  and  _332
REMARK  137  A    between atoms: _331  and  _334
REMARK  138  A    between atoms: _334  and  _335
REMARK  139  A    between atoms: _338  and  _340
REMARK  140  A    between atoms: _340  and  _341
REMARK  141  A    between atoms: _340  and  _343
REMARK  142  A    between atoms: _343  and  _344
REMARK  143  A    between atoms: _347  and  _349
REMARK  144  A    between atoms: _349  and  _350
REMARK  145  A    between atoms: _349  and  _352
REMARK  146  A    between atoms: _352  and  _353
REMARK  147  A    between atoms: _356  and  _358
REMARK  148  A    between atoms: _358  and  _359
REMARK  149  A    between atoms: _358  and  _361
REMARK  150  A    between atoms: _364  and  _366
REMARK  151  A    between atoms: _366  and  _367
REMARK  152  A    between atoms: _366  and  _369
REMARK  153  A    between atoms: _369  and  _370
REMARK  154  A    between atoms: _370  and  _371
REMARK  155  A    between atoms: _371  and  _372
REMARK  156  A    between atoms: _372  and  _373
REMARK  157  A    between atoms: _377  and  _379
REMARK  158  A    between atoms: _379  and  _380
REMARK  159  A    between atoms: _379  and  _382
REMARK  160  A    between atoms: _382  and  _383
REMARK  161  A    between atoms: _383  and  _384
REMARK  162  A    between atoms: _386  and  _388
REMARK  163  A    between atoms: _388  and  _389
REMARK  164  A    between atoms: _388  and  _391
REMARK  165  A    between atoms: _391  and  _392
REMARK  166  A    between atoms: _395  and  _397
REMARK  167  A    between atoms: _397  and  _398
REMARK  168  A    between atoms: _400  and  _402
REMARK  169  A    between atoms: _402  and  _403
REMARK  170  A    between atoms: _405  and  _407
REMARK  171  A    between atoms: _407  and  _408
REMARK  172  A    between atoms: _407  and  _410
REMARK  173  A    between atoms: _410  and  _411
REMARK  174  A    between atoms: _414  and  _416
REMARK  175  A    between atoms: _416  and  _417
REMARK  176  A    between atoms: _419  and  _421
REMARK  177  A    between atoms: _421  and  _422
REMARK  178  A    between atoms: _424  and  _426
REMARK  179  A    between atoms: _426  and  _427
REMARK  180  A    between atoms: _426  and  _429
REMARK  181  A    between atoms: _429  and  _430
REMARK  182  A    between atoms: _433  and  _435
REMARK  183  A    between atoms: _435  and  _436
REMARK  184  A    between atoms: _435  and  _438
REMARK  185  A    between atoms: _441  and  _443
REMARK  186  A    between atoms: _443  and  _444
REMARK  187  A    between atoms: _443  and  _446
REMARK  188  A    between atoms: _446  and  _447
REMARK  189  A    between atoms: _451  and  _452
REMARK  190  A    between atoms: _457  and  _459
REMARK  191  A    between atoms: _459  and  _460
REMARK  192  A    between atoms: _459  and  _462
REMARK  193  A    between atoms: _462  and  _463
REMARK  194  A    between atoms: _467  and  _468
REMARK  195  A    between atoms: _473  and  _475
REMARK  196  A    between atoms: _475  and  _476
REMARK  197  A    between atoms: _479  and  _481
REMARK  198  A    between atoms: _481  and  _482
REMARK  199  A    between atoms: _481  and  _484
REMARK  200  A    between atoms: _484  and  _485
REMARK  201  A    between atoms: _490  and  _492
REMARK  202  A    between atoms: _492  and  _493
REMARK  203  A    between atoms: _492  and  _495
REMARK  204  A    between atoms: _495  and  _496
REMARK  205  A    between atoms: _499  and  _501
REMARK  206  A    between atoms: _501  and  _502
REMARK  207  A    between atoms: _501  and  _504
REMARK  208  A    between atoms: _504  and  _505
REMARK  209  A    between atoms: _508  and  _510
REMARK  210  A    between atoms: _510  and  _511
REMARK  211  A    between atoms: _513  and  _515
REMARK  212  A    between atoms: _515  and  _516
REMARK  213  A    between atoms: _515  and  _518
REMARK  214  A    between atoms: _518  and  _519
REMARK  215  A    between atoms: _519  and  _520
REMARK  216  A    between atoms: _520  and  _521
REMARK  217  A    between atoms: _530  and  _532
REMARK  218  A    between atoms: _532  and  _533
REMARK  219  A    between atoms: _532  and  _535
REMARK  220  A    between atoms: _535  and  _536
REMARK                            x       y       z     vdW  Elec       q    Type
REMARK                         _______ _______ _______ _____ _____    ______ ____
ROOT
ATOM      1  O   HOH     1      13.496 -27.507 -11.861  0.00  0.00    +0.000 OA
ENDROOT
TORSDOF 0
REMARK  Name = ../refined-set-2016/4hdf/4hdf_pocket.pdb
REMARK  220 active torsions:
REMARK  status: ('A' for Active; 'I' for Inactive)
REMARK    1  A    between atoms: _1  and  _3
REMARK    2  A    between atoms: _3  and  _4
REMARK    3  A    between atoms: _3  and  _6
REMARK    4  A    between atoms: _6  and  _7
REMARK    5  A    between atoms: _7  and  _8
REMARK    6  A    between atoms: _8  and  _9
REMARK    7  A    between atoms: _18  and  _20
REMARK    8  A    between atoms: _20  and  _21
REMARK    9  A    between atoms: _20  and  _23
REMARK   10  A    between atoms: _23  and  _24
REMARK   11  A    between atoms: _27  and  _29
REMARK   12  A    between atoms: _29  and  _30
REMARK   13  A    between atoms: _29  and  _32
REMARK   14  A    between atoms: _32  and  _33
REMARK   15  A    between atoms: _36  and  _38
REMARK   16  A    between atoms: _38  and  _39
REMARK   17  A    between atoms: _38  and  _41
REMARK   18  A    between atoms: _41  and  _42
REMARK   19  A    between atoms: _45  and  _47
REMARK   20  A    between atoms: _47  and  _48
REMARK   21  A    between atoms: _47  and  _50
REMARK   22  A    between atoms: _50  and  _51
REMARK   23  A    between atoms: _54  and  _56
REMARK   24  A    between atoms: _56  and  _57
REMARK   25  A    between atoms: _59  and  _61
REMARK   26  A    between atoms: _61  and  _62
REMARK   27  A    between atoms: _65  and  _67
REMARK   28  A    between atoms: _67  and  _68
REMARK   29  A    between atoms: _67  and  _70
REMARK   30  A    between atoms: _70  and  _71
REMARK   31  A    between atoms: _74  and  _76
REMARK   32  A    between atoms: _76  and  _77
REMARK   33  A    between atoms: _76  and  _79
REMARK   34  A    between atoms: _79  and  _80
REMARK   35  A    between atoms: _83  and  _85
REMARK   36  A    between atoms: _85  and  _86
REMARK   37  A    between atoms: _85  and  _88
REMARK   38  A    between atoms: _88  and  _89
REMARK   39  A    between atoms: _92  and  _94
REMARK   40  A    between atoms: _94  and  _95
REMARK   41  A    between atoms: _94  and  _97
REMARK   42  A    between atoms: _100  and  _102
REMARK   43  A    between atoms: _102  and  _103
REMARK   44  A    between atoms: _102  and  _105
REMARK   45  A    between atoms: _105  and  _106
REMARK   46  A    between atoms: _106  and  _107
REMARK   47  A    between atoms: _107  and  _108
REMARK   48  A    between atoms: _108  and  _109
REMARK   49  A    between atoms: _113  and  _115
REMARK   50  A    between atoms: _115  and  _116
REMARK   51  A    between atoms: _115  and  _118
REMARK   52  A    between atoms: _118  and  _119
REMARK   53  A    between atoms: _119  and  _120
REMARK   54  A    between atoms: _122  and  _124
REMARK   55  A    between atoms: _124  and  _125
REMARK   56  A    between atoms: _124  and  _127
REMARK   57  A    between atoms: _127  and  _128
REMARK   58  A    between atoms: _131  and  _133
REMARK   59  A    between atoms: _133  and  _134
REMARK   60  A    between atoms: _136  and  _138
REMARK   61  A    between atoms: _138  and  _139
REMARK   62  A    between atoms: _141  and  _143
REMARK   63  A    between atoms: _143  and  _144
REMARK   64  A    between atoms: _143  and  _146
REMARK   65  A    between atoms: _146  and  _147
REMARK   66  A    between atoms: _150  and  _152
REMARK   67  A    between atoms: _152  and  _153
REMARK   68  A    between atoms: _155  and  _157
REMARK   69  A    between atoms: _157  and  _158
REMARK   70  A    between atoms: _160  and  _162
REMARK   71  A    between atoms: _162  and  _163
REMARK   72  A    between atoms: _162  and  _165
REMARK   73  A    between atoms: _165  and  _166
REMARK   74  A    between atoms: _172  and  _174
REMARK   75  A    between atoms: _174  and  _175
REMARK   76  A    between atoms: _174  and  _177
REMARK   77  A    between atoms: _177  and  _178
REMARK   78  A    between atoms: _181  and  _183
REMARK   79  A    between atoms: _183  and  _184
REMARK   80  A    between atoms: _183  and  _186
REMARK   81  A    between atoms: _186  and  _187
REMARK   82  A    between atoms: _190  and  _192
REMARK   83  A    between atoms: _192  and  _193
REMARK   84  A    between atoms: _192  and  _195
REMARK   85  A    between atoms: _195  and  _196
REMARK   86  A    between atoms: _200  and  _201
REMARK   87  A    between atoms: _206  and  _208
REMARK   88  A    between atoms: _208  and  _209
REMARK   89  A    between atoms: _212  and  _214
REMARK   90  A    between atoms: _214  and  _215
REMARK   91  A    between atoms: _214  and  _217
REMARK   92  A    between atoms: _217  and  _218
REMARK   93  A    between atoms: _223  and  _225
REMARK   94  A    between atoms: _225  and  _226
REMARK   95  A    between atoms: _225  and  _228
REMARK   96  A    between atoms: _228  and  _229
REMARK   97  A    between atoms: _232  and  _234
REMARK   98  A    between atoms: _234  and  _235
REMARK   99  A    between atoms: _237  and  _239
REMARK  100  A    between atoms: _239  and  _240
REMARK  101  A    between atoms: _239  and  _242
REMARK  102  A    between atoms: _242  and  _243
REMARK  103  A    between atoms: _243  and  _244
REMARK  104  A    between atoms: _244  and  _245
REMARK  105  A    between atoms: _254  and  _256
REMARK  106  A    between atoms: _256  and  _257
REMARK  107  A    between atoms: _256  and  _259
REMARK  108  A    between atoms: _259  and  _260
REMARK  109  A    between atoms: _265  and  _267
REMARK  110  A    between atoms: _267  and  _268
REMARK  111  A    between atoms: _267  and  _270
REMARK  112  A    between atoms: _270  and  _271
REMARK  113  A    between atoms: _271  and  _272
REMARK  114  A    between atoms: _272  and  _273
REMARK  115  A    between atoms: _282  and  _284
REMARK  116  A    between atoms: _284  and  _285
REMARK  117  A    between atoms: _284  and  _287
REMARK  118  A    between atoms: _287  and  _288
REMARK  119  A    between atoms: _291  and  _293
REMARK  120  A    between atoms: _293  and  _294
REMARK  121  A    between atoms: _293  and  _296
REMARK  122  A    between atoms: _296  and  _297
REMARK  123  A    between atoms: _300  and  _302
REMARK  124  A    between atoms: _302  and  _303
REMARK  125  A    between atoms: _302  and  _305
REMARK  126  A    between atoms: _305  and  _306
REMARK  127  A    between atoms: _309  and  _311
REMARK  128  A    between atoms: _311  and  _312
REMARK  129  A    between atoms: _311  and  _314
REMARK  130  A    between atoms: _314  and  _315
REMARK  131  A    between atoms: _318  and  _320
REMARK  132  A    between atoms: _320  and  _321
REMARK  133  A    between atoms: _323  and  _325
REMARK  134  A    between atoms: _325  and  _326
REMARK  135  A    between atoms: _329  and  _331
REMARK  136  A    between atoms: _331  and  _332
REMARK  137  A    between atoms: _331  and  _334
REMARK  138  A    between atoms: _334  and  _335
REMARK  139  A    between atoms: _338  and  _340
REMARK  140  A    between atoms: _340  and  _341
REMARK  141  A    between atoms: _340  and  _343
REMARK  142  A    between atoms: _343  and  _344
REMARK  143  A    between atoms: _347  and  _349
REMARK  144  A    between atoms: _349  and  _350
REMARK  145  A    between atoms: _349  and  _352
REMARK  146  A    between atoms: _352  and  _353
REMARK  147  A    between atoms: _356  and  _358
REMARK  148  A    between atoms: _358  and  _359
REMARK  149  A    between atoms: _358  and  _361
REMARK  150  A    between atoms: _364  and  _366
REMARK  151  A    between atoms: _366  and  _367
REMARK  152  A    between atoms: _366  and  _369
REMARK  153  A    between atoms: _369  and  _370
REMARK  154  A    between atoms: _370  and  _371
REMARK  155  A    between atoms: _371  and  _372
REMARK  156  A    between atoms: _372  and  _373
REMARK  157  A    between atoms: _377  and  _379
REMARK  158  A    between atoms: _379  and  _380
REMARK  159  A    between atoms: _379  and  _382
REMARK  160  A    between atoms: _382  and  _383
REMARK  161  A    between atoms: _383  and  _384
REMARK  162  A    between atoms: _386  and  _388
REMARK  163  A    between atoms: _388  and  _389
REMARK  164  A    between atoms: _388  and  _391
REMARK  165  A    between atoms: _391  and  _392
REMARK  166  A    between atoms: _395  and  _397
REMARK  167  A    between atoms: _397  and  _398
REMARK  168  A    between atoms: _400  and  _402
REMARK  169  A    between atoms: _402  and  _403
REMARK  170  A    between atoms: _405  and  _407
REMARK  171  A    between atoms: _407  and  _408
REMARK  172  A    between atoms: _407  and  _410
REMARK  173  A    between atoms: _410  and  _411
REMARK  174  A    between atoms: _414  and  _416
REMARK  175  A    between atoms: _416  and  _417
REMARK  176  A    between atoms: _419  and  _421
REMARK  177  A    between atoms: _421  and  _422
REMARK  178  A    between atoms: _424  and  _426
REMARK  179  A    between atoms: _426  and  _427
REMARK  180  A    between atoms: _426  and  _429
REMARK  181  A    between atoms: _429  and  _430
REMARK  182  A    between atoms: _433  and  _435
REMARK  183  A    between atoms: _435  and  _436
REMARK  184  A    between atoms: _435  and  _438
REMARK  185  A    between atoms: _441  and  _443
REMARK  186  A    between atoms: _443  and  _444
REMARK  187  A    between atoms: _443  and  _446
REMARK  188  A    between atoms: _446  and  _447
REMARK  189  A    between atoms: _451  and  _452
REMARK  190  A    between atoms: _457  and  _459
REMARK  191  A    between atoms: _459  and  _460
REMARK  192  A    between atoms: _459  and  _462
REMARK  193  A    between atoms: _462  and  _463
REMARK  194  A    between atoms: _467  and  _468
REMARK  195  A    between atoms: _473  and  _475
REMARK  196  A    between atoms: _475  and  _476
REMARK  197  A    between atoms: _479  and  _481
REMARK  198  A    between atoms: _481  and  _482
REMARK  199  A    between atoms: _481  and  _484
REMARK  200  A    between atoms: _484  and  _485
REMARK  201  A    between atoms: _490  and  _492
REMARK  202  A    between atoms: _492  and  _493
REMARK  203  A    between atoms: _492  and  _495
REMARK  204  A    between atoms: _495  and  _496
REMARK  205  A    between atoms: _499  and  _501
REMARK  206  A    between atoms: _501  and  _502
REMARK  207  A    between atoms: _501  and  _504
REMARK  208  A    between atoms: _504  and  _505
REMARK  209  A    between atoms: _508  and  _510
REMARK  210  A    between atoms: _510  and  _511
REMARK  211  A    between atoms: _513  and  _515
REMARK  212  A    between atoms: _515  and  _516
REMARK  213  A    between atoms: _515  and  _518
REMARK  214  A    between atoms: _518  and  _519
REMARK  215  A    between atoms: _519  and  _520
REMARK  216  A    between atoms: _520  and  _521
REMARK  217  A    between atoms: _530  and  _532
REMARK  218  A    between atoms: _532  and  _533
REMARK  219  A    between atoms: _532  and  _535
REMARK  220  A    between atoms: _535  and  _536
REMARK                            x       y       z     vdW  Elec       q    Type
REMARK                         _______ _______ _______ _____ _____    ______ ____
ROOT
ATOM      1  O   HOH     1      22.499 -30.264 -24.526  0.00  0.00    +0.000 OA
ENDROOT
TORSDOF 0
REMARK  Name = ../refined-set-2016/4hdf/4hdf_pocket.pdb
REMARK  220 active torsions:
REMARK  status: ('A' for Active; 'I' for Inactive)
REMARK    1  A    between atoms: _1  and  _3
REMARK    2  A    between atoms: _3  and  _4
REMARK    3  A    between atoms: _3  and  _6
REMARK    4  A    between atoms: _6  and  _7
REMARK    5  A    between atoms: _7  and  _8
REMARK    6  A    between atoms: _8  and  _9
REMARK    7  A    between atoms: _18  and  _20
REMARK    8  A    between atoms: _20  and  _21
REMARK    9  A    between atoms: _20  and  _23
REMARK   10  A    between atoms: _23  and  _24
REMARK   11  A    between atoms: _27  and  _29
REMARK   12  A    between atoms: _29  and  _30
REMARK   13  A    between atoms: _29  and  _32
REMARK   14  A    between atoms: _32  and  _33
REMARK   15  A    between atoms: _36  and  _38
REMARK   16  A    between atoms: _38  and  _39
REMARK   17  A    between atoms: _38  and  _41
REMARK   18  A    between atoms: _41  and  _42
REMARK   19  A    between atoms: _45  and  _47
REMARK   20  A    between atoms: _47  and  _48
REMARK   21  A    between atoms: _47  and  _50
REMARK   22  A    between atoms: _50  and  _51
REMARK   23  A    between atoms: _54  and  _56
REMARK   24  A    between atoms: _56  and  _57
REMARK   25  A    between atoms: _59  and  _61
REMARK   26  A    between atoms: _61  and  _62
REMARK   27  A    between atoms: _65  and  _67
REMARK   28  A    between atoms: _67  and  _68
REMARK   29  A    between atoms: _67  and  _70
REMARK   30  A    between atoms: _70  and  _71
REMARK   31  A    between atoms: _74  and  _76
REMARK   32  A    between atoms: _76  and  _77
REMARK   33  A    between atoms: _76  and  _79
REMARK   34  A    between atoms: _79  and  _80
REMARK   35  A    between atoms: _83  and  _85
REMARK   36  A    between atoms: _85  and  _86
REMARK   37  A    between atoms: _85  and  _88
REMARK   38  A    between atoms: _88  and  _89
REMARK   39  A    between atoms: _92  and  _94
REMARK   40  A    between atoms: _94  and  _95
REMARK   41  A    between atoms: _94  and  _97
REMARK   42  A    between atoms: _100  and  _102
REMARK   43  A    between atoms: _102  and  _103
REMARK   44  A    between atoms: _102  and  _105
REMARK   45  A    between atoms: _105  and  _106
REMARK   46  A    between atoms: _106  and  _107
REMARK   47  A    between atoms: _107  and  _108
REMARK   48  A    between atoms: _108  and  _109
REMARK   49  A    between atoms: _113  and  _115
REMARK   50  A    between atoms: _115  and  _116
REMARK   51  A    between atoms: _115  and  _118
REMARK   52  A    between atoms: _118  and  _119
REMARK   53  A    between atoms: _119  and  _120
REMARK   54  A    between atoms: _122  and  _124
REMARK   55  A    between atoms: _124  and  _125
REMARK   56  A    between atoms: _124  and  _127
REMARK   57  A    between atoms: _127  and  _128
REMARK   58  A    between atoms: _131  and  _133
REMARK   59  A    between atoms: _133  and  _134
REMARK   60  A    between atoms: _136  and  _138
REMARK   61  A    between atoms: _138  and  _139
REMARK   62  A    between atoms: _141  and  _143
REMARK   63  A    between atoms: _143  and  _144
REMARK   64  A    between atoms: _143  and  _146
REMARK   65  A    between atoms: _146  and  _147
REMARK   66  A    between atoms: _150  and  _152
REMARK   67  A    between atoms: _152  and  _153
REMARK   68  A    between atoms: _155  and  _157
REMARK   69  A    between atoms: _157  and  _158
REMARK   70  A    between atoms: _160  and  _162
REMARK   71  A    between atoms: _162  and  _163
REMARK   72  A    between atoms: _162  and  _165
REMARK   73  A    between atoms: _165  and  _166
REMARK   74  A    between atoms: _172  and  _174
REMARK   75  A    between atoms: _174  and  _175
REMARK   76  A    between atoms: _174  and  _177
REMARK   77  A    between atoms: _177  and  _178
REMARK   78  A    between atoms: _181  and  _183
REMARK   79  A    between atoms: _183  and  _184
REMARK   80  A    between atoms: _183  and  _186
REMARK   81  A    between atoms: _186  and  _187
REMARK   82  A    between atoms: _190  and  _192
REMARK   83  A    between atoms: _192  and  _193
REMARK   84  A    between atoms: _192  and  _195
REMARK   85  A    between atoms: _195  and  _196
REMARK   86  A    between atoms: _200  and  _201
REMARK   87  A    between atoms: _206  and  _208
REMARK   88  A    between atoms: _208  and  _209
REMARK   89  A    between atoms: _212  and  _214
REMARK   90  A    between atoms: _214  and  _215
REMARK   91  A    between atoms: _214  and  _217
REMARK   92  A    between atoms: _217  and  _218
REMARK   93  A    between atoms: _223  and  _225
REMARK   94  A    between atoms: _225  and  _226
REMARK   95  A    between atoms: _225  and  _228
REMARK   96  A    between atoms: _228  and  _229
REMARK   97  A    between atoms: _232  and  _234
REMARK   98  A    between atoms: _234  and  _235
REMARK   99  A    between atoms: _237  and  _239
REMARK  100  A    between atoms: _239  and  _240
REMARK  101  A    between atoms: _239  and  _242
REMARK  102  A    between atoms: _242  and  _243
REMARK  103  A    between atoms: _243  and  _244
REMARK  104  A    between atoms: _244  and  _245
REMARK  105  A    between atoms: _254  and  _256
REMARK  106  A    between atoms: _256  and  _257
REMARK  107  A    between atoms: _256  and  _259
REMARK  108  A    between atoms: _259  and  _260
REMARK  109  A    between atoms: _265  and  _267
REMARK  110  A    between atoms: _267  and  _268
REMARK  111  A    between atoms: _267  and  _270
REMARK  112  A    between atoms: _270  and  _271
REMARK  113  A    between atoms: _271  and  _272
REMARK  114  A    between atoms: _272  and  _273
REMARK  115  A    between atoms: _282  and  _284
REMARK  116  A    between atoms: _284  and  _285
REMARK  117  A    between atoms: _284  and  _287
REMARK  118  A    between atoms: _287  and  _288
REMARK  119  A    between atoms: _291  and  _293
REMARK  120  A    between atoms: _293  and  _294
REMARK  121  A    between atoms: _293  and  _296
REMARK  122  A    between atoms: _296  and  _297
REMARK  123  A    between atoms: _300  and  _302
REMARK  124  A    between atoms: _302  and  _303
REMARK  125  A    between atoms: _302  and  _305
REMARK  126  A    between atoms: _305  and  _306
REMARK  127  A    between atoms: _309  and  _311
REMARK  128  A    between atoms: _311  and  _312
REMARK  129  A    between atoms: _311  and  _314
REMARK  130  A    between atoms: _314  and  _315
REMARK  131  A    between atoms: _318  and  _320
REMARK  132  A    between atoms: _320  and  _321
REMARK  133  A    between atoms: _323  and  _325
REMARK  134  A    between atoms: _325  and  _326
REMARK  135  A    between atoms: _329  and  _331
REMARK  136  A    between atoms: _331  and  _332
REMARK  137  A    between atoms: _331  and  _334
REMARK  138  A    between atoms: _334  and  _335
REMARK  139  A    between atoms: _338  and  _340
REMARK  140  A    between atoms: _340  and  _341
REMARK  141  A    between atoms: _340  and  _343
REMARK  142  A    between atoms: _343  and  _344
REMARK  143  A    between atoms: _347  and  _349
REMARK  144  A    between atoms: _349  and  _350
REMARK  145  A    between atoms: _349  and  _352
REMARK  146  A    between atoms: _352  and  _353
REMARK  147  A    between atoms: _356  and  _358
REMARK  148  A    between atoms: _358  and  _359
REMARK  149  A    between atoms: _358  and  _361
REMARK  150  A    between atoms: _364  and  _366
REMARK  151  A    between atoms: _366  and  _367
REMARK  152  A    between atoms: _366  and  _369
REMARK  153  A    between atoms: _369  and  _370
REMARK  154  A    between atoms: _370  and  _371
REMARK  155  A    between atoms: _371  and  _372
REMARK  156  A    between atoms: _372  and  _373
REMARK  157  A    between atoms: _377  and  _379
REMARK  158  A    between atoms: _379  and  _380
REMARK  159  A    between atoms: _379  and  _382
REMARK  160  A    between atoms: _382  and  _383
REMARK  161  A    between atoms: _383  and  _384
REMARK  162  A    between atoms: _386  and  _388
REMARK  163  A    between atoms: _388  and  _389
REMARK  164  A    between atoms: _388  and  _391
REMARK  165  A    between atoms: _391  and  _392
REMARK  166  A    between atoms: _395  and  _397
REMARK  167  A    between atoms: _397  and  _398
REMARK  168  A    between atoms: _400  and  _402
REMARK  169  A    between atoms: _402  and  _403
REMARK  170  A    between atoms: _405  and  _407
REMARK  171  A    between atoms: _407  and  _408
REMARK  172  A    between atoms: _407  and  _410
REMARK  173  A    between atoms: _410  and  _411
REMARK  174  A    between atoms: _414  and  _416
REMARK  175  A    between atoms: _416  and  _417
REMARK  176  A    between atoms: _419  and  _421
REMARK  177  A    between atoms: _421  and  _422
REMARK  178  A    between atoms: _424  and  _426
REMARK  179  A    between atoms: _426  and  _427
REMARK  180  A    between atoms: _426  and  _429
REMARK  181  A    between atoms: _429  and  _430
REMARK  182  A    between atoms: _433  and  _435
REMARK  183  A    between atoms: _435  and  _436
REMARK  184  A    between atoms: _435  and  _438
REMARK  185  A    between atoms: _441  and  _443
REMARK  186  A    between atoms: _443  and  _444
REMARK  187  A    between atoms: _443  and  _446
REMARK  188  A    between atoms: _446  and  _447
REMARK  189  A    between atoms: _451  and  _452
REMARK  190  A    between atoms: _457  and  _459
REMARK  191  A    between atoms: _459  and  _460
REMARK  192  A    between atoms: _459  and  _462
REMARK  193  A    between atoms: _462  and  _463
REMARK  194  A    between atoms: _467  and  _468
REMARK  195  A    between atoms: _473  and  _475
REMARK  196  A    between atoms: _475  and  _476
REMARK  197  A    between atoms: _479  and  _481
REMARK  198  A    between atoms: _481  and  _482
REMARK  199  A    between atoms: _481  and  _484
REMARK  200  A    between atoms: _484  and  _485
REMARK  201  A    between atoms: _490  and  _492
REMARK  202  A    between atoms: _492  and  _493
REMARK  203  A    between atoms: _492  and  _495
REMARK  204  A    between atoms: _495  and  _496
REMARK  205  A    between atoms: _499  and  _501
REMARK  206  A    between atoms: _501  and  _502
REMARK  207  A    between atoms: _501  and  _504
REMARK  208  A    between atoms: _504  and  _505
REMARK  209  A    between atoms: _508  and  _510
REMARK  210  A    between atoms: _510  and  _511
REMARK  211  A    between atoms: _513  and  _515
REMARK  212  A    between atoms: _515  and  _516
REMARK  213  A    between atoms: _515  and  _518
REMARK  214  A    between atoms: _518  and  _519
REMARK  215  A    between atoms: _519  and  _520
REMARK  216  A    between atoms: _520  and  _521
REMARK  217  A    between atoms: _530  and  _532
REMARK  218  A    between atoms: _532  and  _533
REMARK  219  A    between atoms: _532  and  _535
REMARK  220  A    between atoms: _535  and  _536
REMARK                            x       y       z     vdW  Elec       q    Type
REMARK                         _______ _______ _______ _____ _____    ______ ____
ROOT
ATOM      1  O   HOH     1       2.597 -21.204 -24.013  0.00  0.00    +0.000 OA
ENDROOT
TORSDOF 0
REMARK  Name = ../refined-set-2016/4hdf/4hdf_pocket.pdb
REMARK  220 active torsions:
REMARK  status: ('A' for Active; 'I' for Inactive)
REMARK    1  A    between atoms: _1  and  _3
REMARK    2  A    between atoms: _3  and  _4
REMARK    3  A    between atoms: _3  and  _6
REMARK    4  A    between atoms: _6  and  _7
REMARK    5  A    between atoms: _7  and  _8
REMARK    6  A    between atoms: _8  and  _9
REMARK    7  A    between atoms: _18  and  _20
REMARK    8  A    between atoms: _20  and  _21
REMARK    9  A    between atoms: _20  and  _23
REMARK   10  A    between atoms: _23  and  _24
REMARK   11  A    between atoms: _27  and  _29
REMARK   12  A    between atoms: _29  and  _30
REMARK   13  A    between atoms: _29  and  _32
REMARK   14  A    between atoms: _32  and  _33
REMARK   15  A    between atoms: _36  and  _38
REMARK   16  A    between atoms: _38  and  _39
REMARK   17  A    between atoms: _38  and  _41
REMARK   18  A    between atoms: _41  and  _42
REMARK   19  A    between atoms: _45  and  _47
REMARK   20  A    between atoms: _47  and  _48
REMARK   21  A    between atoms: _47  and  _50
REMARK   22  A    between atoms: _50  and  _51
REMARK   23  A    between atoms: _54  and  _56
REMARK   24  A    between atoms: _56  and  _57
REMARK   25  A    between atoms: _59  and  _61
REMARK   26  A    between atoms: _61  and  _62
REMARK   27  A    between atoms: _65  and  _67
REMARK   28  A    between atoms: _67  and  _68
REMARK   29  A    between atoms: _67  and  _70
REMARK   30  A    between atoms: _70  and  _71
REMARK   31  A    between atoms: _74  and  _76
REMARK   32  A    between atoms: _76  and  _77
REMARK   33  A    between atoms: _76  and  _79
REMARK   34  A    between atoms: _79  and  _80
REMARK   35  A    between atoms: _83  and  _85
REMARK   36  A    between atoms: _85  and  _86
REMARK   37  A    between atoms: _85  and  _88
REMARK   38  A    between atoms: _88  and  _89
REMARK   39  A    between atoms: _92  and  _94
REMARK   40  A    between atoms: _94  and  _95
REMARK   41  A    between atoms: _94  and  _97
REMARK   42  A    between atoms: _100  and  _102
REMARK   43  A    between atoms: _102  and  _103
REMARK   44  A    between atoms: _102  and  _105
REMARK   45  A    between atoms: _105  and  _106
REMARK   46  A    between atoms: _106  and  _107
REMARK   47  A    between atoms: _107  and  _108
REMARK   48  A    between atoms: _108  and  _109
REMARK   49  A    between atoms: _113  and  _115
REMARK   50  A    between atoms: _115  and  _116
REMARK   51  A    between atoms: _115  and  _118
REMARK   52  A    between atoms: _118  and  _119
REMARK   53  A    between atoms: _119  and  _120
REMARK   54  A    between atoms: _122  and  _124
REMARK   55  A    between atoms: _124  and  _125
REMARK   56  A    between atoms: _124  and  _127
REMARK   57  A    between atoms: _127  and  _128
REMARK   58  A    between atoms: _131  and  _133
REMARK   59  A    between atoms: _133  and  _134
REMARK   60  A    between atoms: _136  and  _138
REMARK   61  A    between atoms: _138  and  _139
REMARK   62  A    between atoms: _141  and  _143
REMARK   63  A    between atoms: _143  and  _144
REMARK   64  A    between atoms: _143  and  _146
REMARK   65  A    between atoms: _146  and  _147
REMARK   66  A    between atoms: _150  and  _152
REMARK   67  A    between atoms: _152  and  _153
REMARK   68  A    between atoms: _155  and  _157
REMARK   69  A    between atoms: _157  and  _158
REMARK   70  A    between atoms: _160  and  _162
REMARK   71  A    between atoms: _162  and  _163
REMARK   72  A    between atoms: _162  and  _165
REMARK   73  A    between atoms: _165  and  _166
REMARK   74  A    between atoms: _172  and  _174
REMARK   75  A    between atoms: _174  and  _175
REMARK   76  A    between atoms: _174  and  _177
REMARK   77  A    between atoms: _177  and  _178
REMARK   78  A    between atoms: _181  and  _183
REMARK   79  A    between atoms: _183  and  _184
REMARK   80  A    between atoms: _183  and  _186
REMARK   81  A    between atoms: _186  and  _187
REMARK   82  A    between atoms: _190  and  _192
REMARK   83  A    between atoms: _192  and  _193
REMARK   84  A    between atoms: _192  and  _195
REMARK   85  A    between atoms: _195  and  _196
REMARK   86  A    between atoms: _200  and  _201
REMARK   87  A    between atoms: _206  and  _208
REMARK   88  A    between atoms: _208  and  _209
REMARK   89  A    between atoms: _212  and  _214
REMARK   90  A    between atoms: _214  and  _215
REMARK   91  A    between atoms: _214  and  _217
REMARK   92  A    between atoms: _217  and  _218
REMARK   93  A    between atoms: _223  and  _225
REMARK   94  A    between atoms: _225  and  _226
REMARK   95  A    between atoms: _225  and  _228
REMARK   96  A    between atoms: _228  and  _229
REMARK   97  A    between atoms: _232  and  _234
REMARK   98  A    between atoms: _234  and  _235
REMARK   99  A    between atoms: _237  and  _239
REMARK  100  A    between atoms: _239  and  _240
REMARK  101  A    between atoms: _239  and  _242
REMARK  102  A    between atoms: _242  and  _243
REMARK  103  A    between atoms: _243  and  _244
REMARK  104  A    between atoms: _244  and  _245
REMARK  105  A    between atoms: _254  and  _256
REMARK  106  A    between atoms: _256  and  _257
REMARK  107  A    between atoms: _256  and  _259
REMARK  108  A    between atoms: _259  and  _260
REMARK  109  A    between atoms: _265  and  _267
REMARK  110  A    between atoms: _267  and  _268
REMARK  111  A    between atoms: _267  and  _270
REMARK  112  A    between atoms: _270  and  _271
REMARK  113  A    between atoms: _271  and  _272
REMARK  114  A    between atoms: _272  and  _273
REMARK  115  A    between atoms: _282  and  _284
REMARK  116  A    between atoms: _284  and  _285
REMARK  117  A    between atoms: _284  and  _287
REMARK  118  A    between atoms: _287  and  _288
REMARK  119  A    between atoms: _291  and  _293
REMARK  120  A    between atoms: _293  and  _294
REMARK  121  A    between atoms: _293  and  _296
REMARK  122  A    between atoms: _296  and  _297
REMARK  123  A    between atoms: _300  and  _302
REMARK  124  A    between atoms: _302  and  _303
REMARK  125  A    between atoms: _302  and  _305
REMARK  126  A    between atoms: _305  and  _306
REMARK  127  A    between atoms: _309  and  _311
REMARK  128  A    between atoms: _311  and  _312
REMARK  129  A    between atoms: _311  and  _314
REMARK  130  A    between atoms: _314  and  _315
REMARK  131  A    between atoms: _318  and  _320
REMARK  132  A    between atoms: _320  and  _321
REMARK  133  A    between atoms: _323  and  _325
REMARK  134  A    between atoms: _325  and  _326
REMARK  135  A    between atoms: _329  and  _331
REMARK  136  A    between atoms: _331  and  _332
REMARK  137  A    between atoms: _331  and  _334
REMARK  138  A    between atoms: _334  and  _335
REMARK  139  A    between atoms: _338  and  _340
REMARK  140  A    between atoms: _340  and  _341
REMARK  141  A    between atoms: _340  and  _343
REMARK  142  A    between atoms: _343  and  _344
REMARK  143  A    between atoms: _347  and  _349
REMARK  144  A    between atoms: _349  and  _350
REMARK  145  A    between atoms: _349  and  _352
REMARK  146  A    between atoms: _352  and  _353
REMARK  147  A    between atoms: _356  and  _358
REMARK  148  A    between atoms: _358  and  _359
REMARK  149  A    between atoms: _358  and  _361
REMARK  150  A    between atoms: _364  and  _366
REMARK  151  A    between atoms: _366  and  _367
REMARK  152  A    between atoms: _366  and  _369
REMARK  153  A    between atoms: _369  and  _370
REMARK  154  A    between atoms: _370  and  _371
REMARK  155  A    between atoms: _371  and  _372
REMARK  156  A    between atoms: _372  and  _373
REMARK  157  A    between atoms: _377  and  _379
REMARK  158  A    between atoms: _379  and  _380
REMARK  159  A    between atoms: _379  and  _382
REMARK  160  A    between atoms: _382  and  _383
REMARK  161  A    between atoms: _383  and  _384
REMARK  162  A    between atoms: _386  and  _388
REMARK  163  A    between atoms: _388  and  _389
REMARK  164  A    between atoms: _388  and  _391
REMARK  165  A    between atoms: _391  and  _392
REMARK  166  A    between atoms: _395  and  _397
REMARK  167  A    between atoms: _397  and  _398
REMARK  168  A    between atoms: _400  and  _402
REMARK  169  A    between atoms: _402  and  _403
REMARK  170  A    between atoms: _405  and  _407
REMARK  171  A    between atoms: _407  and  _408
REMARK  172  A    between atoms: _407  and  _410
REMARK  173  A    between atoms: _410  and  _411
REMARK  174  A    between atoms: _414  and  _416
REMARK  175  A    between atoms: _416  and  _417
REMARK  176  A    between atoms: _419  and  _421
REMARK  177  A    between atoms: _421  and  _422
REMARK  178  A    between atoms: _424  and  _426
REMARK  179  A    between atoms: _426  and  _427
REMARK  180  A    between atoms: _426  and  _429
REMARK  181  A    between atoms: _429  and  _430
REMARK  182  A    between atoms: _433  and  _435
REMARK  183  A    between atoms: _435  and  _436
REMARK  184  A    between atoms: _435  and  _438
REMARK  185  A    between atoms: _441  and  _443
REMARK  186  A    between atoms: _443  and  _444
REMARK  187  A    between atoms: _443  and  _446
REMARK  188  A    between atoms: _446  and  _447
REMARK  189  A    between atoms: _451  and  _452
REMARK  190  A    between atoms: _457  and  _459
REMARK  191  A    between atoms: _459  and  _460
REMARK  192  A    between atoms: _459  and  _462
REMARK  193  A    between atoms: _462  and  _463
REMARK  194  A    between atoms: _467  and  _468
REMARK  195  A    between atoms: _473  and  _475
REMARK  196  A    between atoms: _475  and  _476
REMARK  197  A    between atoms: _479  and  _481
REMARK  198  A    between atoms: _481  and  _482
REMARK  199  A    between atoms: _481  and  _484
REMARK  200  A    between atoms: _484  and  _485
REMARK  201  A    between atoms: _490  and  _492
REMARK  202  A    between atoms: _492  and  _493
REMARK  203  A    between atoms: _492  and  _495
REMARK  204  A    between atoms: _495  and  _496
REMARK  205  A    between atoms: _499  and  _501
REMARK  206  A    between atoms: _501  and  _502
REMARK  207  A    between atoms: _501  and  _504
REMARK  208  A    between atoms: _504  and  _505
REMARK  209  A    between atoms: _508  and  _510
REMARK  210  A    between atoms: _510  and  _511
REMARK  211  A    between atoms: _513  and  _515
REMARK  212  A    between atoms: _515  and  _516
REMARK  213  A    between atoms: _515  and  _518
REMARK  214  A    between atoms: _518  and  _519
REMARK  215  A    between atoms: _519  and  _520
REMARK  216  A    between atoms: _520  and  _521
REMARK  217  A    between atoms: _530  and  _532
REMARK  218  A    between atoms: _532  and  _533
REMARK  219  A    between atoms: _532  and  _535
REMARK  220  A    between atoms: _535  and  _536
REMARK                            x       y       z     vdW  Elec       q    Type
REMARK                         _______ _______ _______ _____ _____    ______ ____
ROOT
ATOM      1  O   HOH     1       8.701 -17.872 -27.450  0.00  0.00    +0.000 OA
ENDROOT
TORSDOF 0
REMARK  Name = ../refined-set-2016/4hdf/4hdf_pocket.pdb
REMARK  220 active torsions:
REMARK  status: ('A' for Active; 'I' for Inactive)
REMARK    1  A    between atoms: _1  and  _3
REMARK    2  A    between atoms: _3  and  _4
REMARK    3  A    between atoms: _3  and  _6
REMARK    4  A    between atoms: _6  and  _7
REMARK    5  A    between atoms: _7  and  _8
REMARK    6  A    between atoms: _8  and  _9
REMARK    7  A    between atoms: _18  and  _20
REMARK    8  A    between atoms: _20  and  _21
REMARK    9  A    between atoms: _20  and  _23
REMARK   10  A    between atoms: _23  and  _24
REMARK   11  A    between atoms: _27  and  _29
REMARK   12  A    between atoms: _29  and  _30
REMARK   13  A    between atoms: _29  and  _32
REMARK   14  A    between atoms: _32  and  _33
REMARK   15  A    between atoms: _36  and  _38
REMARK   16  A    between atoms: _38  and  _39
REMARK   17  A    between atoms: _38  and  _41
REMARK   18  A    between atoms: _41  and  _42
REMARK   19  A    between atoms: _45  and  _47
REMARK   20  A    between atoms: _47  and  _48
REMARK   21  A    between atoms: _47  and  _50
REMARK   22  A    between atoms: _50  and  _51
REMARK   23  A    between atoms: _54  and  _56
REMARK   24  A    between atoms: _56  and  _57
REMARK   25  A    between atoms: _59  and  _61
REMARK   26  A    between atoms: _61  and  _62
REMARK   27  A    between atoms: _65  and  _67
REMARK   28  A    between atoms: _67  and  _68
REMARK   29  A    between atoms: _67  and  _70
REMARK   30  A    between atoms: _70  and  _71
REMARK   31  A    between atoms: _74  and  _76
REMARK   32  A    between atoms: _76  and  _77
REMARK   33  A    between atoms: _76  and  _79
REMARK   34  A    between atoms: _79  and  _80
REMARK   35  A    between atoms: _83  and  _85
REMARK   36  A    between atoms: _85  and  _86
REMARK   37  A    between atoms: _85  and  _88
REMARK   38  A    between atoms: _88  and  _89
REMARK   39  A    between atoms: _92  and  _94
REMARK   40  A    between atoms: _94  and  _95
REMARK   41  A    between atoms: _94  and  _97
REMARK   42  A    between atoms: _100  and  _102
REMARK   43  A    between atoms: _102  and  _103
REMARK   44  A    between atoms: _102  and  _105
REMARK   45  A    between atoms: _105  and  _106
REMARK   46  A    between atoms: _106  and  _107
REMARK   47  A    between atoms: _107  and  _108
REMARK   48  A    between atoms: _108  and  _109
REMARK   49  A    between atoms: _113  and  _115
REMARK   50  A    between atoms: _115  and  _116
REMARK   51  A    between atoms: _115  and  _118
REMARK   52  A    between atoms: _118  and  _119
REMARK   53  A    between atoms: _119  and  _120
REMARK   54  A    between atoms: _122  and  _124
REMARK   55  A    between atoms: _124  and  _125
REMARK   56  A    between atoms: _124  and  _127
REMARK   57  A    between atoms: _127  and  _128
REMARK   58  A    between atoms: _131  and  _133
REMARK   59  A    between atoms: _133  and  _134
REMARK   60  A    between atoms: _136  and  _138
REMARK   61  A    between atoms: _138  and  _139
REMARK   62  A    between atoms: _141  and  _143
REMARK   63  A    between atoms: _143  and  _144
REMARK   64  A    between atoms: _143  and  _146
REMARK   65  A    between atoms: _146  and  _147
REMARK   66  A    between atoms: _150  and  _152
REMARK   67  A    between atoms: _152  and  _153
REMARK   68  A    between atoms: _155  and  _157
REMARK   69  A    between atoms: _157  and  _158
REMARK   70  A    between atoms: _160  and  _162
REMARK   71  A    between atoms: _162  and  _163
REMARK   72  A    between atoms: _162  and  _165
REMARK   73  A    between atoms: _165  and  _166
REMARK   74  A    between atoms: _172  and  _174
REMARK   75  A    between atoms: _174  and  _175
REMARK   76  A    between atoms: _174  and  _177
REMARK   77  A    between atoms: _177  and  _178
REMARK   78  A    between atoms: _181  and  _183
REMARK   79  A    between atoms: _183  and  _184
REMARK   80  A    between atoms: _183  and  _186
REMARK   81  A    between atoms: _186  and  _187
REMARK   82  A    between atoms: _190  and  _192
REMARK   83  A    between atoms: _192  and  _193
REMARK   84  A    between atoms: _192  and  _195
REMARK   85  A    between atoms: _195  and  _196
REMARK   86  A    between atoms: _200  and  _201
REMARK   87  A    between atoms: _206  and  _208
REMARK   88  A    between atoms: _208  and  _209
REMARK   89  A    between atoms: _212  and  _214
REMARK   90  A    between atoms: _214  and  _215
REMARK   91  A    between atoms: _214  and  _217
REMARK   92  A    between atoms: _217  and  _218
REMARK   93  A    between atoms: _223  and  _225
REMARK   94  A    between atoms: _225  and  _226
REMARK   95  A    between atoms: _225  and  _228
REMARK   96  A    between atoms: _228  and  _229
REMARK   97  A    between atoms: _232  and  _234
REMARK   98  A    between atoms: _234  and  _235
REMARK   99  A    between atoms: _237  and  _239
REMARK  100  A    between atoms: _239  and  _240
REMARK  101  A    between atoms: _239  and  _242
REMARK  102  A    between atoms: _242  and  _243
REMARK  103  A    between atoms: _243  and  _244
REMARK  104  A    between atoms: _244  and  _245
REMARK  105  A    between atoms: _254  and  _256
REMARK  106  A    between atoms: _256  and  _257
REMARK  107  A    between atoms: _256  and  _259
REMARK  108  A    between atoms: _259  and  _260
REMARK  109  A    between atoms: _265  and  _267
REMARK  110  A    between atoms: _267  and  _268
REMARK  111  A    between atoms: _267  and  _270
REMARK  112  A    between atoms: _270  and  _271
REMARK  113  A    between atoms: _271  and  _272
REMARK  114  A    between atoms: _272  and  _273
REMARK  115  A    between atoms: _282  and  _284
REMARK  116  A    between atoms: _284  and  _285
REMARK  117  A    between atoms: _284  and  _287
REMARK  118  A    between atoms: _287  and  _288
REMARK  119  A    between atoms: _291  and  _293
REMARK  120  A    between atoms: _293  and  _294
REMARK  121  A    between atoms: _293  and  _296
REMARK  122  A    between atoms: _296  and  _297
REMARK  123  A    between atoms: _300  and  _302
REMARK  124  A    between atoms: _302  and  _303
REMARK  125  A    between atoms: _302  and  _305
REMARK  126  A    between atoms: _305  and  _306
REMARK  127  A    between atoms: _309  and  _311
REMARK  128  A    between atoms: _311  and  _312
REMARK  129  A    between atoms: _311  and  _314
REMARK  130  A    between atoms: _314  and  _315
REMARK  131  A    between atoms: _318  and  _320
REMARK  132  A    between atoms: _320  and  _321
REMARK  133  A    between atoms: _323  and  _325
REMARK  134  A    between atoms: _325  and  _326
REMARK  135  A    between atoms: _329  and  _331
REMARK  136  A    between atoms: _331  and  _332
REMARK  137  A    between atoms: _331  and  _334
REMARK  138  A    between atoms: _334  and  _335
REMARK  139  A    between atoms: _338  and  _340
REMARK  140  A    between atoms: _340  and  _341
REMARK  141  A    between atoms: _340  and  _343
REMARK  142  A    between atoms: _343  and  _344
REMARK  143  A    between atoms: _347  and  _349
REMARK  144  A    between atoms: _349  and  _350
REMARK  145  A    between atoms: _349  and  _352
REMARK  146  A    between atoms: _352  and  _353
REMARK  147  A    between atoms: _356  and  _358
REMARK  148  A    between atoms: _358  and  _359
REMARK  149  A    between atoms: _358  and  _361
REMARK  150  A    between atoms: _364  and  _366
REMARK  151  A    between atoms: _366  and  _367
REMARK  152  A    between atoms: _366  and  _369
REMARK  153  A    between atoms: _369  and  _370
REMARK  154  A    between atoms: _370  and  _371
REMARK  155  A    between atoms: _371  and  _372
REMARK  156  A    between atoms: _372  and  _373
REMARK  157  A    between atoms: _377  and  _379
REMARK  158  A    between atoms: _379  and  _380
REMARK  159  A    between atoms: _379  and  _382
REMARK  160  A    between atoms: _382  and  _383
REMARK  161  A    between atoms: _383  and  _384
REMARK  162  A    between atoms: _386  and  _388
REMARK  163  A    between atoms: _388  and  _389
REMARK  164  A    between atoms: _388  and  _391
REMARK  165  A    between atoms: _391  and  _392
REMARK  166  A    between atoms: _395  and  _397
REMARK  167  A    between atoms: _397  and  _398
REMARK  168  A    between atoms: _400  and  _402
REMARK  169  A    between atoms: _402  and  _403
REMARK  170  A    between atoms: _405  and  _407
REMARK  171  A    between atoms: _407  and  _408
REMARK  172  A    between atoms: _407  and  _410
REMARK  173  A    between atoms: _410  and  _411
REMARK  174  A    between atoms: _414  and  _416
REMARK  175  A    between atoms: _416  and  _417
REMARK  176  A    between atoms: _419  and  _421
REMARK  177  A    between atoms: _421  and  _422
REMARK  178  A    between atoms: _424  and  _426
REMARK  179  A    between atoms: _426  and  _427
REMARK  180  A    between atoms: _426  and  _429
REMARK  181  A    between atoms: _429  and  _430
REMARK  182  A    between atoms: _433  and  _435
REMARK  183  A    between atoms: _435  and  _436
REMARK  184  A    between atoms: _435  and  _438
REMARK  185  A    between atoms: _441  and  _443
REMARK  186  A    between atoms: _443  and  _444
REMARK  187  A    between atoms: _443  and  _446
REMARK  188  A    between atoms: _446  and  _447
REMARK  189  A    between atoms: _451  and  _452
REMARK  190  A    between atoms: _457  and  _459
REMARK  191  A    between atoms: _459  and  _460
REMARK  192  A    between atoms: _459  and  _462
REMARK  193  A    between atoms: _462  and  _463
REMARK  194  A    between atoms: _467  and  _468
REMARK  195  A    between atoms: _473  and  _475
REMARK  196  A    between atoms: _475  and  _476
REMARK  197  A    between atoms: _479  and  _481
REMARK  198  A    between atoms: _481  and  _482
REMARK  199  A    between atoms: _481  and  _484
REMARK  200  A    between atoms: _484  and  _485
REMARK  201  A    between atoms: _490  and  _492
REMARK  202  A    between atoms: _492  and  _493
REMARK  203  A    between atoms: _492  and  _495
REMARK  204  A    between atoms: _495  and  _496
REMARK  205  A    between atoms: _499  and  _501
REMARK  206  A    between atoms: _501  and  _502
REMARK  207  A    between atoms: _501  and  _504
REMARK  208  A    between atoms: _504  and  _505
REMARK  209  A    between atoms: _508  and  _510
REMARK  210  A    between atoms: _510  and  _511
REMARK  211  A    between atoms: _513  and  _515
REMARK  212  A    between atoms: _515  and  _516
REMARK  213  A    between atoms: _515  and  _518
REMARK  214  A    between atoms: _518  and  _519
REMARK  215  A    between atoms: _519  and  _520
REMARK  216  A    between atoms: _520  and  _521
REMARK  217  A    between atoms: _530  and  _532
REMARK  218  A    between atoms: _532  and  _533
REMARK  219  A    between atoms: _532  and  _535
REMARK  220  A    between atoms: _535  and  _536
REMARK                            x       y       z     vdW  Elec       q    Type
REMARK                         _______ _______ _______ _____ _____    ______ ____
ROOT
ATOM      1  O   HOH     1      21.137 -20.317 -11.858  0.00  0.00    +0.000 OA
ENDROOT
TORSDOF 0
REMARK  Name = ../refined-set-2016/4hdf/4hdf_pocket.pdb
REMARK  220 active torsions:
REMARK  status: ('A' for Active; 'I' for Inactive)
REMARK    1  A    between atoms: _1  and  _3
REMARK    2  A    between atoms: _3  and  _4
REMARK    3  A    between atoms: _3  and  _6
REMARK    4  A    between atoms: _6  and  _7
REMARK    5  A    between atoms: _7  and  _8
REMARK    6  A    between atoms: _8  and  _9
REMARK    7  A    between atoms: _18  and  _20
REMARK    8  A    between atoms: _20  and  _21
REMARK    9  A    between atoms: _20  and  _23
REMARK   10  A    between atoms: _23  and  _24
REMARK   11  A    between atoms: _27  and  _29
REMARK   12  A    between atoms: _29  and  _30
REMARK   13  A    between atoms: _29  and  _32
REMARK   14  A    between atoms: _32  and  _33
REMARK   15  A    between atoms: _36  and  _38
REMARK   16  A    between atoms: _38  and  _39
REMARK   17  A    between atoms: _38  and  _41
REMARK   18  A    between atoms: _41  and  _42
REMARK   19  A    between atoms: _45  and  _47
REMARK   20  A    between atoms: _47  and  _48
REMARK   21  A    between atoms: _47  and  _50
REMARK   22  A    between atoms: _50  and  _51
REMARK   23  A    between atoms: _54  and  _56
REMARK   24  A    between atoms: _56  and  _57
REMARK   25  A    between atoms: _59  and  _61
REMARK   26  A    between atoms: _61  and  _62
REMARK   27  A    between atoms: _65  and  _67
REMARK   28  A    between atoms: _67  and  _68
REMARK   29  A    between atoms: _67  and  _70
REMARK   30  A    between atoms: _70  and  _71
REMARK   31  A    between atoms: _74  and  _76
REMARK   32  A    between atoms: _76  and  _77
REMARK   33  A    between atoms: _76  and  _79
REMARK   34  A    between atoms: _79  and  _80
REMARK   35  A    between atoms: _83  and  _85
REMARK   36  A    between atoms: _85  and  _86
REMARK   37  A    between atoms: _85  and  _88
REMARK   38  A    between atoms: _88  and  _89
REMARK   39  A    between atoms: _92  and  _94
REMARK   40  A    between atoms: _94  and  _95
REMARK   41  A    between atoms: _94  and  _97
REMARK   42  A    between atoms: _100  and  _102
REMARK   43  A    between atoms: _102  and  _103
REMARK   44  A    between atoms: _102  and  _105
REMARK   45  A    between atoms: _105  and  _106
REMARK   46  A    between atoms: _106  and  _107
REMARK   47  A    between atoms: _107  and  _108
REMARK   48  A    between atoms: _108  and  _109
REMARK   49  A    between atoms: _113  and  _115
REMARK   50  A    between atoms: _115  and  _116
REMARK   51  A    between atoms: _115  and  _118
REMARK   52  A    between atoms: _118  and  _119
REMARK   53  A    between atoms: _119  and  _120
REMARK   54  A    between atoms: _122  and  _124
REMARK   55  A    between atoms: _124  and  _125
REMARK   56  A    between atoms: _124  and  _127
REMARK   57  A    between atoms: _127  and  _128
REMARK   58  A    between atoms: _131  and  _133
REMARK   59  A    between atoms: _133  and  _134
REMARK   60  A    between atoms: _136  and  _138
REMARK   61  A    between atoms: _138  and  _139
REMARK   62  A    between atoms: _141  and  _143
REMARK   63  A    between atoms: _143  and  _144
REMARK   64  A    between atoms: _143  and  _146
REMARK   65  A    between atoms: _146  and  _147
REMARK   66  A    between atoms: _150  and  _152
REMARK   67  A    between atoms: _152  and  _153
REMARK   68  A    between atoms: _155  and  _157
REMARK   69  A    between atoms: _157  and  _158
REMARK   70  A    between atoms: _160  and  _162
REMARK   71  A    between atoms: _162  and  _163
REMARK   72  A    between atoms: _162  and  _165
REMARK   73  A    between atoms: _165  and  _166
REMARK   74  A    between atoms: _172  and  _174
REMARK   75  A    between atoms: _174  and  _175
REMARK   76  A    between atoms: _174  and  _177
REMARK   77  A    between atoms: _177  and  _178
REMARK   78  A    between atoms: _181  and  _183
REMARK   79  A    between atoms: _183  and  _184
REMARK   80  A    between atoms: _183  and  _186
REMARK   81  A    between atoms: _186  and  _187
REMARK   82  A    between atoms: _190  and  _192
REMARK   83  A    between atoms: _192  and  _193
REMARK   84  A    between atoms: _192  and  _195
REMARK   85  A    between atoms: _195  and  _196
REMARK   86  A    between atoms: _200  and  _201
REMARK   87  A    between atoms: _206  and  _208
REMARK   88  A    between atoms: _208  and  _209
REMARK   89  A    between atoms: _212  and  _214
REMARK   90  A    between atoms: _214  and  _215
REMARK   91  A    between atoms: _214  and  _217
REMARK   92  A    between atoms: _217  and  _218
REMARK   93  A    between atoms: _223  and  _225
REMARK   94  A    between atoms: _225  and  _226
REMARK   95  A    between atoms: _225  and  _228
REMARK   96  A    between atoms: _228  and  _229
REMARK   97  A    between atoms: _232  and  _234
REMARK   98  A    between atoms: _234  and  _235
REMARK   99  A    between atoms: _237  and  _239
REMARK  100  A    between atoms: _239  and  _240
REMARK  101  A    between atoms: _239  and  _242
REMARK  102  A    between atoms: _242  and  _243
REMARK  103  A    between atoms: _243  and  _244
REMARK  104  A    between atoms: _244  and  _245
REMARK  105  A    between atoms: _254  and  _256
REMARK  106  A    between atoms: _256  and  _257
REMARK  107  A    between atoms: _256  and  _259
REMARK  108  A    between atoms: _259  and  _260
REMARK  109  A    between atoms: _265  and  _267
REMARK  110  A    between atoms: _267  and  _268
REMARK  111  A    between atoms: _267  and  _270
REMARK  112  A    between atoms: _270  and  _271
REMARK  113  A    between atoms: _271  and  _272
REMARK  114  A    between atoms: _272  and  _273
REMARK  115  A    between atoms: _282  and  _284
REMARK  116  A    between atoms: _284  and  _285
REMARK  117  A    between atoms: _284  and  _287
REMARK  118  A    between atoms: _287  and  _288
REMARK  119  A    between atoms: _291  and  _293
REMARK  120  A    between atoms: _293  and  _294
REMARK  121  A    between atoms: _293  and  _296
REMARK  122  A    between atoms: _296  and  _297
REMARK  123  A    between atoms: _300  and  _302
REMARK  124  A    between atoms: _302  and  _303
REMARK  125  A    between atoms: _302  and  _305
REMARK  126  A    between atoms: _305  and  _306
REMARK  127  A    between atoms: _309  and  _311
REMARK  128  A    between atoms: _311  and  _312
REMARK  129  A    between atoms: _311  and  _314
REMARK  130  A    between atoms: _314  and  _315
REMARK  131  A    between atoms: _318  and  _320
REMARK  132  A    between atoms: _320  and  _321
REMARK  133  A    between atoms: _323  and  _325
REMARK  134  A    between atoms: _325  and  _326
REMARK  135  A    between atoms: _329  and  _331
REMARK  136  A    between atoms: _331  and  _332
REMARK  137  A    between atoms: _331  and  _334
REMARK  138  A    between atoms: _334  and  _335
REMARK  139  A    between atoms: _338  and  _340
REMARK  140  A    between atoms: _340  and  _341
REMARK  141  A    between atoms: _340  and  _343
REMARK  142  A    between atoms: _343  and  _344
REMARK  143  A    between atoms: _347  and  _349
REMARK  144  A    between atoms: _349  and  _350
REMARK  145  A    between atoms: _349  and  _352
REMARK  146  A    between atoms: _352  and  _353
REMARK  147  A    between atoms: _356  and  _358
REMARK  148  A    between atoms: _358  and  _359
REMARK  149  A    between atoms: _358  and  _361
REMARK  150  A    between atoms: _364  and  _366
REMARK  151  A    between atoms: _366  and  _367
REMARK  152  A    between atoms: _366  and  _369
REMARK  153  A    between atoms: _369  and  _370
REMARK  154  A    between atoms: _370  and  _371
REMARK  155  A    between atoms: _371  and  _372
REMARK  156  A    between atoms: _372  and  _373
REMARK  157  A    between atoms: _377  and  _379
REMARK  158  A    between atoms: _379  and  _380
REMARK  159  A    between atoms: _379  and  _382
REMARK  160  A    between atoms: _382  and  _383
REMARK  161  A    between atoms: _383  and  _384
REMARK  162  A    between atoms: _386  and  _388
REMARK  163  A    between atoms: _388  and  _389
REMARK  164  A    between atoms: _388  and  _391
REMARK  165  A    between atoms: _391  and  _392
REMARK  166  A    between atoms: _395  and  _397
REMARK  167  A    between atoms: _397  and  _398
REMARK  168  A    between atoms: _400  and  _402
REMARK  169  A    between atoms: _402  and  _403
REMARK  170  A    between atoms: _405  and  _407
REMARK  171  A    between atoms: _407  and  _408
REMARK  172  A    between atoms: _407  and  _410
REMARK  173  A    between atoms: _410  and  _411
REMARK  174  A    between atoms: _414  and  _416
REMARK  175  A    between atoms: _416  and  _417
REMARK  176  A    between atoms: _419  and  _421
REMARK  177  A    between atoms: _421  and  _422
REMARK  178  A    between atoms: _424  and  _426
REMARK  179  A    between atoms: _426  and  _427
REMARK  180  A    between atoms: _426  and  _429
REMARK  181  A    between atoms: _429  and  _430
REMARK  182  A    between atoms: _433  and  _435
REMARK  183  A    between atoms: _435  and  _436
REMARK  184  A    between atoms: _435  and  _438
REMARK  185  A    between atoms: _441  and  _443
REMARK  186  A    between atoms: _443  and  _444
REMARK  187  A    between atoms: _443  and  _446
REMARK  188  A    between atoms: _446  and  _447
REMARK  189  A    between atoms: _451  and  _452
REMARK  190  A    between atoms: _457  and  _459
REMARK  191  A    between atoms: _459  and  _460
REMARK  192  A    between atoms: _459  and  _462
REMARK  193  A    between atoms: _462  and  _463
REMARK  194  A    between atoms: _467  and  _468
REMARK  195  A    between atoms: _473  and  _475
REMARK  196  A    between atoms: _475  and  _476
REMARK  197  A    between atoms: _479  and  _481
REMARK  198  A    between atoms: _481  and  _482
REMARK  199  A    between atoms: _481  and  _484
REMARK  200  A    between atoms: _484  and  _485
REMARK  201  A    between atoms: _490  and  _492
REMARK  202  A    between atoms: _492  and  _493
REMARK  203  A    between atoms: _492  and  _495
REMARK  204  A    between atoms: _495  and  _496
REMARK  205  A    between atoms: _499  and  _501
REMARK  206  A    between atoms: _501  and  _502
REMARK  207  A    between atoms: _501  and  _504
REMARK  208  A    between atoms: _504  and  _505
REMARK  209  A    between atoms: _508  and  _510
REMARK  210  A    between atoms: _510  and  _511
REMARK  211  A    between atoms: _513  and  _515
REMARK  212  A    between atoms: _515  and  _516
REMARK  213  A    between atoms: _515  and  _518
REMARK  214  A    between atoms: _518  and  _519
REMARK  215  A    between atoms: _519  and  _520
REMARK  216  A    between atoms: _520  and  _521
REMARK  217  A    between atoms: _530  and  _532
REMARK  218  A    between atoms: _532  and  _533
REMARK  219  A    between atoms: _532  and  _535
REMARK  220  A    between atoms: _535  and  _536
REMARK                            x       y       z     vdW  Elec       q    Type
REMARK                         _______ _______ _______ _____ _____    ______ ____
ROOT
ATOM      1  O   HOH     1      22.321 -27.389 -18.439  0.00  0.00    +0.000 OA
ENDROOT
TORSDOF 0
REMARK  Name = ../refined-set-2016/4hdf/4hdf_pocket.pdb
REMARK  220 active torsions:
REMARK  status: ('A' for Active; 'I' for Inactive)
REMARK    1  A    between atoms: _1  and  _3
REMARK    2  A    between atoms: _3  and  _4
REMARK    3  A    between atoms: _3  and  _6
REMARK    4  A    between atoms: _6  and  _7
REMARK    5  A    between atoms: _7  and  _8
REMARK    6  A    between atoms: _8  and  _9
REMARK    7  A    between atoms: _18  and  _20
REMARK    8  A    between atoms: _20  and  _21
REMARK    9  A    between atoms: _20  and  _23
REMARK   10  A    between atoms: _23  and  _24
REMARK   11  A    between atoms: _27  and  _29
REMARK   12  A    between atoms: _29  and  _30
REMARK   13  A    between atoms: _29  and  _32
REMARK   14  A    between atoms: _32  and  _33
REMARK   15  A    between atoms: _36  and  _38
REMARK   16  A    between atoms: _38  and  _39
REMARK   17  A    between atoms: _38  and  _41
REMARK   18  A    between atoms: _41  and  _42
REMARK   19  A    between atoms: _45  and  _47
REMARK   20  A    between atoms: _47  and  _48
REMARK   21  A    between atoms: _47  and  _50
REMARK   22  A    between atoms: _50  and  _51
REMARK   23  A    between atoms: _54  and  _56
REMARK   24  A    between atoms: _56  and  _57
REMARK   25  A    between atoms: _59  and  _61
REMARK   26  A    between atoms: _61  and  _62
REMARK   27  A    between atoms: _65  and  _67
REMARK   28  A    between atoms: _67  and  _68
REMARK   29  A    between atoms: _67  and  _70
REMARK   30  A    between atoms: _70  and  _71
REMARK   31  A    between atoms: _74  and  _76
REMARK   32  A    between atoms: _76  and  _77
REMARK   33  A    between atoms: _76  and  _79
REMARK   34  A    between atoms: _79  and  _80
REMARK   35  A    between atoms: _83  and  _85
REMARK   36  A    between atoms: _85  and  _86
REMARK   37  A    between atoms: _85  and  _88
REMARK   38  A    between atoms: _88  and  _89
REMARK   39  A    between atoms: _92  and  _94
REMARK   40  A    between atoms: _94  and  _95
REMARK   41  A    between atoms: _94  and  _97
REMARK   42  A    between atoms: _100  and  _102
REMARK   43  A    between atoms: _102  and  _103
REMARK   44  A    between atoms: _102  and  _105
REMARK   45  A    between atoms: _105  and  _106
REMARK   46  A    between atoms: _106  and  _107
REMARK   47  A    between atoms: _107  and  _108
REMARK   48  A    between atoms: _108  and  _109
REMARK   49  A    between atoms: _113  and  _115
REMARK   50  A    between atoms: _115  and  _116
REMARK   51  A    between atoms: _115  and  _118
REMARK   52  A    between atoms: _118  and  _119
REMARK   53  A    between atoms: _119  and  _120
REMARK   54  A    between atoms: _122  and  _124
REMARK   55  A    between atoms: _124  and  _125
REMARK   56  A    between atoms: _124  and  _127
REMARK   57  A    between atoms: _127  and  _128
REMARK   58  A    between atoms: _131  and  _133
REMARK   59  A    between atoms: _133  and  _134
REMARK   60  A    between atoms: _136  and  _138
REMARK   61  A    between atoms: _138  and  _139
REMARK   62  A    between atoms: _141  and  _143
REMARK   63  A    between atoms: _143  and  _144
REMARK   64  A    between atoms: _143  and  _146
REMARK   65  A    between atoms: _146  and  _147
REMARK   66  A    between atoms: _150  and  _152
REMARK   67  A    between atoms: _152  and  _153
REMARK   68  A    between atoms: _155  and  _157
REMARK   69  A    between atoms: _157  and  _158
REMARK   70  A    between atoms: _160  and  _162
REMARK   71  A    between atoms: _162  and  _163
REMARK   72  A    between atoms: _162  and  _165
REMARK   73  A    between atoms: _165  and  _166
REMARK   74  A    between atoms: _172  and  _174
REMARK   75  A    between atoms: _174  and  _175
REMARK   76  A    between atoms: _174  and  _177
REMARK   77  A    between atoms: _177  and  _178
REMARK   78  A    between atoms: _181  and  _183
REMARK   79  A    between atoms: _183  and  _184
REMARK   80  A    between atoms: _183  and  _186
REMARK   81  A    between atoms: _186  and  _187
REMARK   82  A    between atoms: _190  and  _192
REMARK   83  A    between atoms: _192  and  _193
REMARK   84  A    between atoms: _192  and  _195
REMARK   85  A    between atoms: _195  and  _196
REMARK   86  A    between atoms: _200  and  _201
REMARK   87  A    between atoms: _206  and  _208
REMARK   88  A    between atoms: _208  and  _209
REMARK   89  A    between atoms: _212  and  _214
REMARK   90  A    between atoms: _214  and  _215
REMARK   91  A    between atoms: _214  and  _217
REMARK   92  A    between atoms: _217  and  _218
REMARK   93  A    between atoms: _223  and  _225
REMARK   94  A    between atoms: _225  and  _226
REMARK   95  A    between atoms: _225  and  _228
REMARK   96  A    between atoms: _228  and  _229
REMARK   97  A    between atoms: _232  and  _234
REMARK   98  A    between atoms: _234  and  _235
REMARK   99  A    between atoms: _237  and  _239
REMARK  100  A    between atoms: _239  and  _240
REMARK  101  A    between atoms: _239  and  _242
REMARK  102  A    between atoms: _242  and  _243
REMARK  103  A    between atoms: _243  and  _244
REMARK  104  A    between atoms: _244  and  _245
REMARK  105  A    between atoms: _254  and  _256
REMARK  106  A    between atoms: _256  and  _257
REMARK  107  A    between atoms: _256  and  _259
REMARK  108  A    between atoms: _259  and  _260
REMARK  109  A    between atoms: _265  and  _267
REMARK  110  A    between atoms: _267  and  _268
REMARK  111  A    between atoms: _267  and  _270
REMARK  112  A    between atoms: _270  and  _271
REMARK  113  A    between atoms: _271  and  _272
REMARK  114  A    between atoms: _272  and  _273
REMARK  115  A    between atoms: _282  and  _284
REMARK  116  A    between atoms: _284  and  _285
REMARK  117  A    between atoms: _284  and  _287
REMARK  118  A    between atoms: _287  and  _288
REMARK  119  A    between atoms: _291  and  _293
REMARK  120  A    between atoms: _293  and  _294
REMARK  121  A    between atoms: _293  and  _296
REMARK  122  A    between atoms: _296  and  _297
REMARK  123  A    between atoms: _300  and  _302
REMARK  124  A    between atoms: _302  and  _303
REMARK  125  A    between atoms: _302  and  _305
REMARK  126  A    between atoms: _305  and  _306
REMARK  127  A    between atoms: _309  and  _311
REMARK  128  A    between atoms: _311  and  _312
REMARK  129  A    between atoms: _311  and  _314
REMARK  130  A    between atoms: _314  and  _315
REMARK  131  A    between atoms: _318  and  _320
REMARK  132  A    between atoms: _320  and  _321
REMARK  133  A    between atoms: _323  and  _325
REMARK  134  A    between atoms: _325  and  _326
REMARK  135  A    between atoms: _329  and  _331
REMARK  136  A    between atoms: _331  and  _332
REMARK  137  A    between atoms: _331  and  _334
REMARK  138  A    between atoms: _334  and  _335
REMARK  139  A    between atoms: _338  and  _340
REMARK  140  A    between atoms: _340  and  _341
REMARK  141  A    between atoms: _340  and  _343
REMARK  142  A    between atoms: _343  and  _344
REMARK  143  A    between atoms: _347  and  _349
REMARK  144  A    between atoms: _349  and  _350
REMARK  145  A    between atoms: _349  and  _352
REMARK  146  A    between atoms: _352  and  _353
REMARK  147  A    between atoms: _356  and  _358
REMARK  148  A    between atoms: _358  and  _359
REMARK  149  A    between atoms: _358  and  _361
REMARK  150  A    between atoms: _364  and  _366
REMARK  151  A    between atoms: _366  and  _367
REMARK  152  A    between atoms: _366  and  _369
REMARK  153  A    between atoms: _369  and  _370
REMARK  154  A    between atoms: _370  and  _371
REMARK  155  A    between atoms: _371  and  _372
REMARK  156  A    between atoms: _372  and  _373
REMARK  157  A    between atoms: _377  and  _379
REMARK  158  A    between atoms: _379  and  _380
REMARK  159  A    between atoms: _379  and  _382
REMARK  160  A    between atoms: _382  and  _383
REMARK  161  A    between atoms: _383  and  _384
REMARK  162  A    between atoms: _386  and  _388
REMARK  163  A    between atoms: _388  and  _389
REMARK  164  A    between atoms: _388  and  _391
REMARK  165  A    between atoms: _391  and  _392
REMARK  166  A    between atoms: _395  and  _397
REMARK  167  A    between atoms: _397  and  _398
REMARK  168  A    between atoms: _400  and  _402
REMARK  169  A    between atoms: _402  and  _403
REMARK  170  A    between atoms: _405  and  _407
REMARK  171  A    between atoms: _407  and  _408
REMARK  172  A    between atoms: _407  and  _410
REMARK  173  A    between atoms: _410  and  _411
REMARK  174  A    between atoms: _414  and  _416
REMARK  175  A    between atoms: _416  and  _417
REMARK  176  A    between atoms: _419  and  _421
REMARK  177  A    between atoms: _421  and  _422
REMARK  178  A    between atoms: _424  and  _426
REMARK  179  A    between atoms: _426  and  _427
REMARK  180  A    between atoms: _426  and  _429
REMARK  181  A    between atoms: _429  and  _430
REMARK  182  A    between atoms: _433  and  _435
REMARK  183  A    between atoms: _435  and  _436
REMARK  184  A    between atoms: _435  and  _438
REMARK  185  A    between atoms: _441  and  _443
REMARK  186  A    between atoms: _443  and  _444
REMARK  187  A    between atoms: _443  and  _446
REMARK  188  A    between atoms: _446  and  _447
REMARK  189  A    between atoms: _451  and  _452
REMARK  190  A    between atoms: _457  and  _459
REMARK  191  A    between atoms: _459  and  _460
REMARK  192  A    between atoms: _459  and  _462
REMARK  193  A    between atoms: _462  and  _463
REMARK  194  A    between atoms: _467  and  _468
REMARK  195  A    between atoms: _473  and  _475
REMARK  196  A    between atoms: _475  and  _476
REMARK  197  A    between atoms: _479  and  _481
REMARK  198  A    between atoms: _481  and  _482
REMARK  199  A    between atoms: _481  and  _484
REMARK  200  A    between atoms: _484  and  _485
REMARK  201  A    between atoms: _490  and  _492
REMARK  202  A    between atoms: _492  and  _493
REMARK  203  A    between atoms: _492  and  _495
REMARK  204  A    between atoms: _495  and  _496
REMARK  205  A    between atoms: _499  and  _501
REMARK  206  A    between atoms: _501  and  _502
REMARK  207  A    between atoms: _501  and  _504
REMARK  208  A    between atoms: _504  and  _505
REMARK  209  A    between atoms: _508  and  _510
REMARK  210  A    between atoms: _510  and  _511
REMARK  211  A    between atoms: _513  and  _515
REMARK  212  A    between atoms: _515  and  _516
REMARK  213  A    between atoms: _515  and  _518
REMARK  214  A    between atoms: _518  and  _519
REMARK  215  A    between atoms: _519  and  _520
REMARK  216  A    between atoms: _520  and  _521
REMARK  217  A    between atoms: _530  and  _532
REMARK  218  A    between atoms: _532  and  _533
REMARK  219  A    between atoms: _532  and  _535
REMARK  220  A    between atoms: _535  and  _536
REMARK                            x       y       z     vdW  Elec       q    Type
REMARK                         _______ _______ _______ _____ _____    ______ ____
ROOT
ATOM      1  O   HOH     1       8.602 -15.037 -18.507  0.00  0.00    +0.000 OA
ENDROOT
TORSDOF 0
REMARK  Name = ../refined-set-2016/4hdf/4hdf_pocket.pdb
REMARK  220 active torsions:
REMARK  status: ('A' for Active; 'I' for Inactive)
REMARK    1  A    between atoms: _1  and  _3
REMARK    2  A    between atoms: _3  and  _4
REMARK    3  A    between atoms: _3  and  _6
REMARK    4  A    between atoms: _6  and  _7
REMARK    5  A    between atoms: _7  and  _8
REMARK    6  A    between atoms: _8  and  _9
REMARK    7  A    between atoms: _18  and  _20
REMARK    8  A    between atoms: _20  and  _21
REMARK    9  A    between atoms: _20  and  _23
REMARK   10  A    between atoms: _23  and  _24
REMARK   11  A    between atoms: _27  and  _29
REMARK   12  A    between atoms: _29  and  _30
REMARK   13  A    between atoms: _29  and  _32
REMARK   14  A    between atoms: _32  and  _33
REMARK   15  A    between atoms: _36  and  _38
REMARK   16  A    between atoms: _38  and  _39
REMARK   17  A    between atoms: _38  and  _41
REMARK   18  A    between atoms: _41  and  _42
REMARK   19  A    between atoms: _45  and  _47
REMARK   20  A    between atoms: _47  and  _48
REMARK   21  A    between atoms: _47  and  _50
REMARK   22  A    between atoms: _50  and  _51
REMARK   23  A    between atoms: _54  and  _56
REMARK   24  A    between atoms: _56  and  _57
REMARK   25  A    between atoms: _59  and  _61
REMARK   26  A    between atoms: _61  and  _62
REMARK   27  A    between atoms: _65  and  _67
REMARK   28  A    between atoms: _67  and  _68
REMARK   29  A    between atoms: _67  and  _70
REMARK   30  A    between atoms: _70  and  _71
REMARK   31  A    between atoms: _74  and  _76
REMARK   32  A    between atoms: _76  and  _77
REMARK   33  A    between atoms: _76  and  _79
REMARK   34  A    between atoms: _79  and  _80
REMARK   35  A    between atoms: _83  and  _85
REMARK   36  A    between atoms: _85  and  _86
REMARK   37  A    between atoms: _85  and  _88
REMARK   38  A    between atoms: _88  and  _89
REMARK   39  A    between atoms: _92  and  _94
REMARK   40  A    between atoms: _94  and  _95
REMARK   41  A    between atoms: _94  and  _97
REMARK   42  A    between atoms: _100  and  _102
REMARK   43  A    between atoms: _102  and  _103
REMARK   44  A    between atoms: _102  and  _105
REMARK   45  A    between atoms: _105  and  _106
REMARK   46  A    between atoms: _106  and  _107
REMARK   47  A    between atoms: _107  and  _108
REMARK   48  A    between atoms: _108  and  _109
REMARK   49  A    between atoms: _113  and  _115
REMARK   50  A    between atoms: _115  and  _116
REMARK   51  A    between atoms: _115  and  _118
REMARK   52  A    between atoms: _118  and  _119
REMARK   53  A    between atoms: _119  and  _120
REMARK   54  A    between atoms: _122  and  _124
REMARK   55  A    between atoms: _124  and  _125
REMARK   56  A    between atoms: _124  and  _127
REMARK   57  A    between atoms: _127  and  _128
REMARK   58  A    between atoms: _131  and  _133
REMARK   59  A    between atoms: _133  and  _134
REMARK   60  A    between atoms: _136  and  _138
REMARK   61  A    between atoms: _138  and  _139
REMARK   62  A    between atoms: _141  and  _143
REMARK   63  A    between atoms: _143  and  _144
REMARK   64  A    between atoms: _143  and  _146
REMARK   65  A    between atoms: _146  and  _147
REMARK   66  A    between atoms: _150  and  _152
REMARK   67  A    between atoms: _152  and  _153
REMARK   68  A    between atoms: _155  and  _157
REMARK   69  A    between atoms: _157  and  _158
REMARK   70  A    between atoms: _160  and  _162
REMARK   71  A    between atoms: _162  and  _163
REMARK   72  A    between atoms: _162  and  _165
REMARK   73  A    between atoms: _165  and  _166
REMARK   74  A    between atoms: _172  and  _174
REMARK   75  A    between atoms: _174  and  _175
REMARK   76  A    between atoms: _174  and  _177
REMARK   77  A    between atoms: _177  and  _178
REMARK   78  A    between atoms: _181  and  _183
REMARK   79  A    between atoms: _183  and  _184
REMARK   80  A    between atoms: _183  and  _186
REMARK   81  A    between atoms: _186  and  _187
REMARK   82  A    between atoms: _190  and  _192
REMARK   83  A    between atoms: _192  and  _193
REMARK   84  A    between atoms: _192  and  _195
REMARK   85  A    between atoms: _195  and  _196
REMARK   86  A    between atoms: _200  and  _201
REMARK   87  A    between atoms: _206  and  _208
REMARK   88  A    between atoms: _208  and  _209
REMARK   89  A    between atoms: _212  and  _214
REMARK   90  A    between atoms: _214  and  _215
REMARK   91  A    between atoms: _214  and  _217
REMARK   92  A    between atoms: _217  and  _218
REMARK   93  A    between atoms: _223  and  _225
REMARK   94  A    between atoms: _225  and  _226
REMARK   95  A    between atoms: _225  and  _228
REMARK   96  A    between atoms: _228  and  _229
REMARK   97  A    between atoms: _232  and  _234
REMARK   98  A    between atoms: _234  and  _235
REMARK   99  A    between atoms: _237  and  _239
REMARK  100  A    between atoms: _239  and  _240
REMARK  101  A    between atoms: _239  and  _242
REMARK  102  A    between atoms: _242  and  _243
REMARK  103  A    between atoms: _243  and  _244
REMARK  104  A    between atoms: _244  and  _245
REMARK  105  A    between atoms: _254  and  _256
REMARK  106  A    between atoms: _256  and  _257
REMARK  107  A    between atoms: _256  and  _259
REMARK  108  A    between atoms: _259  and  _260
REMARK  109  A    between atoms: _265  and  _267
REMARK  110  A    between atoms: _267  and  _268
REMARK  111  A    between atoms: _267  and  _270
REMARK  112  A    between atoms: _270  and  _271
REMARK  113  A    between atoms: _271  and  _272
REMARK  114  A    between atoms: _272  and  _273
REMARK  115  A    between atoms: _282  and  _284
REMARK  116  A    between atoms: _284  and  _285
REMARK  117  A    between atoms: _284  and  _287
REMARK  118  A    between atoms: _287  and  _288
REMARK  119  A    between atoms: _291  and  _293
REMARK  120  A    between atoms: _293  and  _294
REMARK  121  A    between atoms: _293  and  _296
REMARK  122  A    between atoms: _296  and  _297
REMARK  123  A    between atoms: _300  and  _302
REMARK  124  A    between atoms: _302  and  _303
REMARK  125  A    between atoms: _302  and  _305
REMARK  126  A    between atoms: _305  and  _306
REMARK  127  A    between atoms: _309  and  _311
REMARK  128  A    between atoms: _311  and  _312
REMARK  129  A    between atoms: _311  and  _314
REMARK  130  A    between atoms: _314  and  _315
REMARK  131  A    between atoms: _318  and  _320
REMARK  132  A    between atoms: _320  and  _321
REMARK  133  A    between atoms: _323  and  _325
REMARK  134  A    between atoms: _325  and  _326
REMARK  135  A    between atoms: _329  and  _331
REMARK  136  A    between atoms: _331  and  _332
REMARK  137  A    between atoms: _331  and  _334
REMARK  138  A    between atoms: _334  and  _335
REMARK  139  A    between atoms: _338  and  _340
REMARK  140  A    between atoms: _340  and  _341
REMARK  141  A    between atoms: _340  and  _343
REMARK  142  A    between atoms: _343  and  _344
REMARK  143  A    between atoms: _347  and  _349
REMARK  144  A    between atoms: _349  and  _350
REMARK  145  A    between atoms: _349  and  _352
REMARK  146  A    between atoms: _352  and  _353
REMARK  147  A    between atoms: _356  and  _358
REMARK  148  A    between atoms: _358  and  _359
REMARK  149  A    between atoms: _358  and  _361
REMARK  150  A    between atoms: _364  and  _366
REMARK  151  A    between atoms: _366  and  _367
REMARK  152  A    between atoms: _366  and  _369
REMARK  153  A    between atoms: _369  and  _370
REMARK  154  A    between atoms: _370  and  _371
REMARK  155  A    between atoms: _371  and  _372
REMARK  156  A    between atoms: _372  and  _373
REMARK  157  A    between atoms: _377  and  _379
REMARK  158  A    between atoms: _379  and  _380
REMARK  159  A    between atoms: _379  and  _382
REMARK  160  A    between atoms: _382  and  _383
REMARK  161  A    between atoms: _383  and  _384
REMARK  162  A    between atoms: _386  and  _388
REMARK  163  A    between atoms: _388  and  _389
REMARK  164  A    between atoms: _388  and  _391
REMARK  165  A    between atoms: _391  and  _392
REMARK  166  A    between atoms: _395  and  _397
REMARK  167  A    between atoms: _397  and  _398
REMARK  168  A    between atoms: _400  and  _402
REMARK  169  A    between atoms: _402  and  _403
REMARK  170  A    between atoms: _405  and  _407
REMARK  171  A    between atoms: _407  and  _408
REMARK  172  A    between atoms: _407  and  _410
REMARK  173  A    between atoms: _410  and  _411
REMARK  174  A    between atoms: _414  and  _416
REMARK  175  A    between atoms: _416  and  _417
REMARK  176  A    between atoms: _419  and  _421
REMARK  177  A    between atoms: _421  and  _422
REMARK  178  A    between atoms: _424  and  _426
REMARK  179  A    between atoms: _426  and  _427
REMARK  180  A    between atoms: _426  and  _429
REMARK  181  A    between atoms: _429  and  _430
REMARK  182  A    between atoms: _433  and  _435
REMARK  183  A    between atoms: _435  and  _436
REMARK  184  A    between atoms: _435  and  _438
REMARK  185  A    between atoms: _441  and  _443
REMARK  186  A    between atoms: _443  and  _444
REMARK  187  A    between atoms: _443  and  _446
REMARK  188  A    between atoms: _446  and  _447
REMARK  189  A    between atoms: _451  and  _452
REMARK  190  A    between atoms: _457  and  _459
REMARK  191  A    between atoms: _459  and  _460
REMARK  192  A    between atoms: _459  and  _462
REMARK  193  A    between atoms: _462  and  _463
REMARK  194  A    between atoms: _467  and  _468
REMARK  195  A    between atoms: _473  and  _475
REMARK  196  A    between atoms: _475  and  _476
REMARK  197  A    between atoms: _479  and  _481
REMARK  198  A    between atoms: _481  and  _482
REMARK  199  A    between atoms: _481  and  _484
REMARK  200  A    between atoms: _484  and  _485
REMARK  201  A    between atoms: _490  and  _492
REMARK  202  A    between atoms: _492  and  _493
REMARK  203  A    between atoms: _492  and  _495
REMARK  204  A    between atoms: _495  and  _496
REMARK  205  A    between atoms: _499  and  _501
REMARK  206  A    between atoms: _501  and  _502
REMARK  207  A    between atoms: _501  and  _504
REMARK  208  A    between atoms: _504  and  _505
REMARK  209  A    between atoms: _508  and  _510
REMARK  210  A    between atoms: _510  and  _511
REMARK  211  A    between atoms: _513  and  _515
REMARK  212  A    between atoms: _515  and  _516
REMARK  213  A    between atoms: _515  and  _518
REMARK  214  A    between atoms: _518  and  _519
REMARK  215  A    between atoms: _519  and  _520
REMARK  216  A    between atoms: _520  and  _521
REMARK  217  A    between atoms: _530  and  _532
REMARK  218  A    between atoms: _532  and  _533
REMARK  219  A    between atoms: _532  and  _535
REMARK  220  A    between atoms: _535  and  _536
REMARK                            x       y       z     vdW  Elec       q    Type
REMARK                         _______ _______ _______ _____ _____    ______ ____
ROOT
ATOM      1  O   HOH     1      19.109 -23.290 -18.155  0.00  0.00    +0.000 OA
ENDROOT
TORSDOF 0
REMARK  Name = ../refined-set-2016/4hdf/4hdf_pocket.pdb
REMARK  220 active torsions:
REMARK  status: ('A' for Active; 'I' for Inactive)
REMARK    1  A    between atoms: _1  and  _3
REMARK    2  A    between atoms: _3  and  _4
REMARK    3  A    between atoms: _3  and  _6
REMARK    4  A    between atoms: _6  and  _7
REMARK    5  A    between atoms: _7  and  _8
REMARK    6  A    between atoms: _8  and  _9
REMARK    7  A    between atoms: _18  and  _20
REMARK    8  A    between atoms: _20  and  _21
REMARK    9  A    between atoms: _20  and  _23
REMARK   10  A    between atoms: _23  and  _24
REMARK   11  A    between atoms: _27  and  _29
REMARK   12  A    between atoms: _29  and  _30
REMARK   13  A    between atoms: _29  and  _32
REMARK   14  A    between atoms: _32  and  _33
REMARK   15  A    between atoms: _36  and  _38
REMARK   16  A    between atoms: _38  and  _39
REMARK   17  A    between atoms: _38  and  _41
REMARK   18  A    between atoms: _41  and  _42
REMARK   19  A    between atoms: _45  and  _47
REMARK   20  A    between atoms: _47  and  _48
REMARK   21  A    between atoms: _47  and  _50
REMARK   22  A    between atoms: _50  and  _51
REMARK   23  A    between atoms: _54  and  _56
REMARK   24  A    between atoms: _56  and  _57
REMARK   25  A    between atoms: _59  and  _61
REMARK   26  A    between atoms: _61  and  _62
REMARK   27  A    between atoms: _65  and  _67
REMARK   28  A    between atoms: _67  and  _68
REMARK   29  A    between atoms: _67  and  _70
REMARK   30  A    between atoms: _70  and  _71
REMARK   31  A    between atoms: _74  and  _76
REMARK   32  A    between atoms: _76  and  _77
REMARK   33  A    between atoms: _76  and  _79
REMARK   34  A    between atoms: _79  and  _80
REMARK   35  A    between atoms: _83  and  _85
REMARK   36  A    between atoms: _85  and  _86
REMARK   37  A    between atoms: _85  and  _88
REMARK   38  A    between atoms: _88  and  _89
REMARK   39  A    between atoms: _92  and  _94
REMARK   40  A    between atoms: _94  and  _95
REMARK   41  A    between atoms: _94  and  _97
REMARK   42  A    between atoms: _100  and  _102
REMARK   43  A    between atoms: _102  and  _103
REMARK   44  A    between atoms: _102  and  _105
REMARK   45  A    between atoms: _105  and  _106
REMARK   46  A    between atoms: _106  and  _107
REMARK   47  A    between atoms: _107  and  _108
REMARK   48  A    between atoms: _108  and  _109
REMARK   49  A    between atoms: _113  and  _115
REMARK   50  A    between atoms: _115  and  _116
REMARK   51  A    between atoms: _115  and  _118
REMARK   52  A    between atoms: _118  and  _119
REMARK   53  A    between atoms: _119  and  _120
REMARK   54  A    between atoms: _122  and  _124
REMARK   55  A    between atoms: _124  and  _125
REMARK   56  A    between atoms: _124  and  _127
REMARK   57  A    between atoms: _127  and  _128
REMARK   58  A    between atoms: _131  and  _133
REMARK   59  A    between atoms: _133  and  _134
REMARK   60  A    between atoms: _136  and  _138
REMARK   61  A    between atoms: _138  and  _139
REMARK   62  A    between atoms: _141  and  _143
REMARK   63  A    between atoms: _143  and  _144
REMARK   64  A    between atoms: _143  and  _146
REMARK   65  A    between atoms: _146  and  _147
REMARK   66  A    between atoms: _150  and  _152
REMARK   67  A    between atoms: _152  and  _153
REMARK   68  A    between atoms: _155  and  _157
REMARK   69  A    between atoms: _157  and  _158
REMARK   70  A    between atoms: _160  and  _162
REMARK   71  A    between atoms: _162  and  _163
REMARK   72  A    between atoms: _162  and  _165
REMARK   73  A    between atoms: _165  and  _166
REMARK   74  A    between atoms: _172  and  _174
REMARK   75  A    between atoms: _174  and  _175
REMARK   76  A    between atoms: _174  and  _177
REMARK   77  A    between atoms: _177  and  _178
REMARK   78  A    between atoms: _181  and  _183
REMARK   79  A    between atoms: _183  and  _184
REMARK   80  A    between atoms: _183  and  _186
REMARK   81  A    between atoms: _186  and  _187
REMARK   82  A    between atoms: _190  and  _192
REMARK   83  A    between atoms: _192  and  _193
REMARK   84  A    between atoms: _192  and  _195
REMARK   85  A    between atoms: _195  and  _196
REMARK   86  A    between atoms: _200  and  _201
REMARK   87  A    between atoms: _206  and  _208
REMARK   88  A    between atoms: _208  and  _209
REMARK   89  A    between atoms: _212  and  _214
REMARK   90  A    between atoms: _214  and  _215
REMARK   91  A    between atoms: _214  and  _217
REMARK   92  A    between atoms: _217  and  _218
REMARK   93  A    between atoms: _223  and  _225
REMARK   94  A    between atoms: _225  and  _226
REMARK   95  A    between atoms: _225  and  _228
REMARK   96  A    between atoms: _228  and  _229
REMARK   97  A    between atoms: _232  and  _234
REMARK   98  A    between atoms: _234  and  _235
REMARK   99  A    between atoms: _237  and  _239
REMARK  100  A    between atoms: _239  and  _240
REMARK  101  A    between atoms: _239  and  _242
REMARK  102  A    between atoms: _242  and  _243
REMARK  103  A    between atoms: _243  and  _244
REMARK  104  A    between atoms: _244  and  _245
REMARK  105  A    between atoms: _254  and  _256
REMARK  106  A    between atoms: _256  and  _257
REMARK  107  A    between atoms: _256  and  _259
REMARK  108  A    between atoms: _259  and  _260
REMARK  109  A    between atoms: _265  and  _267
REMARK  110  A    between atoms: _267  and  _268
REMARK  111  A    between atoms: _267  and  _270
REMARK  112  A    between atoms: _270  and  _271
REMARK  113  A    between atoms: _271  and  _272
REMARK  114  A    between atoms: _272  and  _273
REMARK  115  A    between atoms: _282  and  _284
REMARK  116  A    between atoms: _284  and  _285
REMARK  117  A    between atoms: _284  and  _287
REMARK  118  A    between atoms: _287  and  _288
REMARK  119  A    between atoms: _291  and  _293
REMARK  120  A    between atoms: _293  and  _294
REMARK  121  A    between atoms: _293  and  _296
REMARK  122  A    between atoms: _296  and  _297
REMARK  123  A    between atoms: _300  and  _302
REMARK  124  A    between atoms: _302  and  _303
REMARK  125  A    between atoms: _302  and  _305
REMARK  126  A    between atoms: _305  and  _306
REMARK  127  A    between atoms: _309  and  _311
REMARK  128  A    between atoms: _311  and  _312
REMARK  129  A    between atoms: _311  and  _314
REMARK  130  A    between atoms: _314  and  _315
REMARK  131  A    between atoms: _318  and  _320
REMARK  132  A    between atoms: _320  and  _321
REMARK  133  A    between atoms: _323  and  _325
REMARK  134  A    between atoms: _325  and  _326
REMARK  135  A    between atoms: _329  and  _331
REMARK  136  A    between atoms: _331  and  _332
REMARK  137  A    between atoms: _331  and  _334
REMARK  138  A    between atoms: _334  and  _335
REMARK  139  A    between atoms: _338  and  _340
REMARK  140  A    between atoms: _340  and  _341
REMARK  141  A    between atoms: _340  and  _343
REMARK  142  A    between atoms: _343  and  _344
REMARK  143  A    between atoms: _347  and  _349
REMARK  144  A    between atoms: _349  and  _350
REMARK  145  A    between atoms: _349  and  _352
REMARK  146  A    between atoms: _352  and  _353
REMARK  147  A    between atoms: _356  and  _358
REMARK  148  A    between atoms: _358  and  _359
REMARK  149  A    between atoms: _358  and  _361
REMARK  150  A    between atoms: _364  and  _366
REMARK  151  A    between atoms: _366  and  _367
REMARK  152  A    between atoms: _366  and  _369
REMARK  153  A    between atoms: _369  and  _370
REMARK  154  A    between atoms: _370  and  _371
REMARK  155  A    between atoms: _371  and  _372
REMARK  156  A    between atoms: _372  and  _373
REMARK  157  A    between atoms: _377  and  _379
REMARK  158  A    between atoms: _379  and  _380
REMARK  159  A    between atoms: _379  and  _382
REMARK  160  A    between atoms: _382  and  _383
REMARK  161  A    between atoms: _383  and  _384
REMARK  162  A    between atoms: _386  and  _388
REMARK  163  A    between atoms: _388  and  _389
REMARK  164  A    between atoms: _388  and  _391
REMARK  165  A    between atoms: _391  and  _392
REMARK  166  A    between atoms: _395  and  _397
REMARK  167  A    between atoms: _397  and  _398
REMARK  168  A    between atoms: _400  and  _402
REMARK  169  A    between atoms: _402  and  _403
REMARK  170  A    between atoms: _405  and  _407
REMARK  171  A    between atoms: _407  and  _408
REMARK  172  A    between atoms: _407  and  _410
REMARK  173  A    between atoms: _410  and  _411
REMARK  174  A    between atoms: _414  and  _416
REMARK  175  A    between atoms: _416  and  _417
REMARK  176  A    between atoms: _419  and  _421
REMARK  177  A    between atoms: _421  and  _422
REMARK  178  A    between atoms: _424  and  _426
REMARK  179  A    between atoms: _426  and  _427
REMARK  180  A    between atoms: _426  and  _429
REMARK  181  A    between atoms: _429  and  _430
REMARK  182  A    between atoms: _433  and  _435
REMARK  183  A    between atoms: _435  and  _436
REMARK  184  A    between atoms: _435  and  _438
REMARK  185  A    between atoms: _441  and  _443
REMARK  186  A    between atoms: _443  and  _444
REMARK  187  A    between atoms: _443  and  _446
REMARK  188  A    between atoms: _446  and  _447
REMARK  189  A    between atoms: _451  and  _452
REMARK  190  A    between atoms: _457  and  _459
REMARK  191  A    between atoms: _459  and  _460
REMARK  192  A    between atoms: _459  and  _462
REMARK  193  A    between atoms: _462  and  _463
REMARK  194  A    between atoms: _467  and  _468
REMARK  195  A    between atoms: _473  and  _475
REMARK  196  A    between atoms: _475  and  _476
REMARK  197  A    between atoms: _479  and  _481
REMARK  198  A    between atoms: _481  and  _482
REMARK  199  A    between atoms: _481  and  _484
REMARK  200  A    between atoms: _484  and  _485
REMARK  201  A    between atoms: _490  and  _492
REMARK  202  A    between atoms: _492  and  _493
REMARK  203  A    between atoms: _492  and  _495
REMARK  204  A    between atoms: _495  and  _496
REMARK  205  A    between atoms: _499  and  _501
REMARK  206  A    between atoms: _501  and  _502
REMARK  207  A    between atoms: _501  and  _504
REMARK  208  A    between atoms: _504  and  _505
REMARK  209  A    between atoms: _508  and  _510
REMARK  210  A    between atoms: _510  and  _511
REMARK  211  A    between atoms: _513  and  _515
REMARK  212  A    between atoms: _515  and  _516
REMARK  213  A    between atoms: _515  and  _518
REMARK  214  A    between atoms: _518  and  _519
REMARK  215  A    between atoms: _519  and  _520
REMARK  216  A    between atoms: _520  and  _521
REMARK  217  A    between atoms: _530  and  _532
REMARK  218  A    between atoms: _532  and  _533
REMARK  219  A    between atoms: _532  and  _535
REMARK  220  A    between atoms: _535  and  _536
REMARK                            x       y       z     vdW  Elec       q    Type
REMARK                         _______ _______ _______ _____ _____    ______ ____
ROOT
ATOM      1  O   HOH     1       5.390 -14.974 -26.314  0.00  0.00    +0.000 OA
ENDROOT
TORSDOF 0
REMARK  Name = ../refined-set-2016/4hdf/4hdf_pocket.pdb
REMARK  220 active torsions:
REMARK  status: ('A' for Active; 'I' for Inactive)
REMARK    1  A    between atoms: _1  and  _3
REMARK    2  A    between atoms: _3  and  _4
REMARK    3  A    between atoms: _3  and  _6
REMARK    4  A    between atoms: _6  and  _7
REMARK    5  A    between atoms: _7  and  _8
REMARK    6  A    between atoms: _8  and  _9
REMARK    7  A    between atoms: _18  and  _20
REMARK    8  A    between atoms: _20  and  _21
REMARK    9  A    between atoms: _20  and  _23
REMARK   10  A    between atoms: _23  and  _24
REMARK   11  A    between atoms: _27  and  _29
REMARK   12  A    between atoms: _29  and  _30
REMARK   13  A    between atoms: _29  and  _32
REMARK   14  A    between atoms: _32  and  _33
REMARK   15  A    between atoms: _36  and  _38
REMARK   16  A    between atoms: _38  and  _39
REMARK   17  A    between atoms: _38  and  _41
REMARK   18  A    between atoms: _41  and  _42
REMARK   19  A    between atoms: _45  and  _47
REMARK   20  A    between atoms: _47  and  _48
REMARK   21  A    between atoms: _47  and  _50
REMARK   22  A    between atoms: _50  and  _51
REMARK   23  A    between atoms: _54  and  _56
REMARK   24  A    between atoms: _56  and  _57
REMARK   25  A    between atoms: _59  and  _61
REMARK   26  A    between atoms: _61  and  _62
REMARK   27  A    between atoms: _65  and  _67
REMARK   28  A    between atoms: _67  and  _68
REMARK   29  A    between atoms: _67  and  _70
REMARK   30  A    between atoms: _70  and  _71
REMARK   31  A    between atoms: _74  and  _76
REMARK   32  A    between atoms: _76  and  _77
REMARK   33  A    between atoms: _76  and  _79
REMARK   34  A    between atoms: _79  and  _80
REMARK   35  A    between atoms: _83  and  _85
REMARK   36  A    between atoms: _85  and  _86
REMARK   37  A    between atoms: _85  and  _88
REMARK   38  A    between atoms: _88  and  _89
REMARK   39  A    between atoms: _92  and  _94
REMARK   40  A    between atoms: _94  and  _95
REMARK   41  A    between atoms: _94  and  _97
REMARK   42  A    between atoms: _100  and  _102
REMARK   43  A    between atoms: _102  and  _103
REMARK   44  A    between atoms: _102  and  _105
REMARK   45  A    between atoms: _105  and  _106
REMARK   46  A    between atoms: _106  and  _107
REMARK   47  A    between atoms: _107  and  _108
REMARK   48  A    between atoms: _108  and  _109
REMARK   49  A    between atoms: _113  and  _115
REMARK   50  A    between atoms: _115  and  _116
REMARK   51  A    between atoms: _115  and  _118
REMARK   52  A    between atoms: _118  and  _119
REMARK   53  A    between atoms: _119  and  _120
REMARK   54  A    between atoms: _122  and  _124
REMARK   55  A    between atoms: _124  and  _125
REMARK   56  A    between atoms: _124  and  _127
REMARK   57  A    between atoms: _127  and  _128
REMARK   58  A    between atoms: _131  and  _133
REMARK   59  A    between atoms: _133  and  _134
REMARK   60  A    between atoms: _136  and  _138
REMARK   61  A    between atoms: _138  and  _139
REMARK   62  A    between atoms: _141  and  _143
REMARK   63  A    between atoms: _143  and  _144
REMARK   64  A    between atoms: _143  and  _146
REMARK   65  A    between atoms: _146  and  _147
REMARK   66  A    between atoms: _150  and  _152
REMARK   67  A    between atoms: _152  and  _153
REMARK   68  A    between atoms: _155  and  _157
REMARK   69  A    between atoms: _157  and  _158
REMARK   70  A    between atoms: _160  and  _162
REMARK   71  A    between atoms: _162  and  _163
REMARK   72  A    between atoms: _162  and  _165
REMARK   73  A    between atoms: _165  and  _166
REMARK   74  A    between atoms: _172  and  _174
REMARK   75  A    between atoms: _174  and  _175
REMARK   76  A    between atoms: _174  and  _177
REMARK   77  A    between atoms: _177  and  _178
REMARK   78  A    between atoms: _181  and  _183
REMARK   79  A    between atoms: _183  and  _184
REMARK   80  A    between atoms: _183  and  _186
REMARK   81  A    between atoms: _186  and  _187
REMARK   82  A    between atoms: _190  and  _192
REMARK   83  A    between atoms: _192  and  _193
REMARK   84  A    between atoms: _192  and  _195
REMARK   85  A    between atoms: _195  and  _196
REMARK   86  A    between atoms: _200  and  _201
REMARK   87  A    between atoms: _206  and  _208
REMARK   88  A    between atoms: _208  and  _209
REMARK   89  A    between atoms: _212  and  _214
REMARK   90  A    between atoms: _214  and  _215
REMARK   91  A    between atoms: _214  and  _217
REMARK   92  A    between atoms: _217  and  _218
REMARK   93  A    between atoms: _223  and  _225
REMARK   94  A    between atoms: _225  and  _226
REMARK   95  A    between atoms: _225  and  _228
REMARK   96  A    between atoms: _228  and  _229
REMARK   97  A    between atoms: _232  and  _234
REMARK   98  A    between atoms: _234  and  _235
REMARK   99  A    between atoms: _237  and  _239
REMARK  100  A    between atoms: _239  and  _240
REMARK  101  A    between atoms: _239  and  _242
REMARK  102  A    between atoms: _242  and  _243
REMARK  103  A    between atoms: _243  and  _244
REMARK  104  A    between atoms: _244  and  _245
REMARK  105  A    between atoms: _254  and  _256
REMARK  106  A    between atoms: _256  and  _257
REMARK  107  A    between atoms: _256  and  _259
REMARK  108  A    between atoms: _259  and  _260
REMARK  109  A    between atoms: _265  and  _267
REMARK  110  A    between atoms: _267  and  _268
REMARK  111  A    between atoms: _267  and  _270
REMARK  112  A    between atoms: _270  and  _271
REMARK  113  A    between atoms: _271  and  _272
REMARK  114  A    between atoms: _272  and  _273
REMARK  115  A    between atoms: _282  and  _284
REMARK  116  A    between atoms: _284  and  _285
REMARK  117  A    between atoms: _284  and  _287
REMARK  118  A    between atoms: _287  and  _288
REMARK  119  A    between atoms: _291  and  _293
REMARK  120  A    between atoms: _293  and  _294
REMARK  121  A    between atoms: _293  and  _296
REMARK  122  A    between atoms: _296  and  _297
REMARK  123  A    between atoms: _300  and  _302
REMARK  124  A    between atoms: _302  and  _303
REMARK  125  A    between atoms: _302  and  _305
REMARK  126  A    between atoms: _305  and  _306
REMARK  127  A    between atoms: _309  and  _311
REMARK  128  A    between atoms: _311  and  _312
REMARK  129  A    between atoms: _311  and  _314
REMARK  130  A    between atoms: _314  and  _315
REMARK  131  A    between atoms: _318  and  _320
REMARK  132  A    between atoms: _320  and  _321
REMARK  133  A    between atoms: _323  and  _325
REMARK  134  A    between atoms: _325  and  _326
REMARK  135  A    between atoms: _329  and  _331
REMARK  136  A    between atoms: _331  and  _332
REMARK  137  A    between atoms: _331  and  _334
REMARK  138  A    between atoms: _334  and  _335
REMARK  139  A    between atoms: _338  and  _340
REMARK  140  A    between atoms: _340  and  _341
REMARK  141  A    between atoms: _340  and  _343
REMARK  142  A    between atoms: _343  and  _344
REMARK  143  A    between atoms: _347  and  _349
REMARK  144  A    between atoms: _349  and  _350
REMARK  145  A    between atoms: _349  and  _352
REMARK  146  A    between atoms: _352  and  _353
REMARK  147  A    between atoms: _356  and  _358
REMARK  148  A    between atoms: _358  and  _359
REMARK  149  A    between atoms: _358  and  _361
REMARK  150  A    between atoms: _364  and  _366
REMARK  151  A    between atoms: _366  and  _367
REMARK  152  A    between atoms: _366  and  _369
REMARK  153  A    between atoms: _369  and  _370
REMARK  154  A    between atoms: _370  and  _371
REMARK  155  A    between atoms: _371  and  _372
REMARK  156  A    between atoms: _372  and  _373
REMARK  157  A    between atoms: _377  and  _379
REMARK  158  A    between atoms: _379  and  _380
REMARK  159  A    between atoms: _379  and  _382
REMARK  160  A    between atoms: _382  and  _383
REMARK  161  A    between atoms: _383  and  _384
REMARK  162  A    between atoms: _386  and  _388
REMARK  163  A    between atoms: _388  and  _389
REMARK  164  A    between atoms: _388  and  _391
REMARK  165  A    between atoms: _391  and  _392
REMARK  166  A    between atoms: _395  and  _397
REMARK  167  A    between atoms: _397  and  _398
REMARK  168  A    between atoms: _400  and  _402
REMARK  169  A    between atoms: _402  and  _403
REMARK  170  A    between atoms: _405  and  _407
REMARK  171  A    between atoms: _407  and  _408
REMARK  172  A    between atoms: _407  and  _410
REMARK  173  A    between atoms: _410  and  _411
REMARK  174  A    between atoms: _414  and  _416
REMARK  175  A    between atoms: _416  and  _417
REMARK  176  A    between atoms: _419  and  _421
REMARK  177  A    between atoms: _421  and  _422
REMARK  178  A    between atoms: _424  and  _426
REMARK  179  A    between atoms: _426  and  _427
REMARK  180  A    between atoms: _426  and  _429
REMARK  181  A    between atoms: _429  and  _430
REMARK  182  A    between atoms: _433  and  _435
REMARK  183  A    between atoms: _435  and  _436
REMARK  184  A    between atoms: _435  and  _438
REMARK  185  A    between atoms: _441  and  _443
REMARK  186  A    between atoms: _443  and  _444
REMARK  187  A    between atoms: _443  and  _446
REMARK  188  A    between atoms: _446  and  _447
REMARK  189  A    between atoms: _451  and  _452
REMARK  190  A    between atoms: _457  and  _459
REMARK  191  A    between atoms: _459  and  _460
REMARK  192  A    between atoms: _459  and  _462
REMARK  193  A    between atoms: _462  and  _463
REMARK  194  A    between atoms: _467  and  _468
REMARK  195  A    between atoms: _473  and  _475
REMARK  196  A    between atoms: _475  and  _476
REMARK  197  A    between atoms: _479  and  _481
REMARK  198  A    between atoms: _481  and  _482
REMARK  199  A    between atoms: _481  and  _484
REMARK  200  A    between atoms: _484  and  _485
REMARK  201  A    between atoms: _490  and  _492
REMARK  202  A    between atoms: _492  and  _493
REMARK  203  A    between atoms: _492  and  _495
REMARK  204  A    between atoms: _495  and  _496
REMARK  205  A    between atoms: _499  and  _501
REMARK  206  A    between atoms: _501  and  _502
REMARK  207  A    between atoms: _501  and  _504
REMARK  208  A    between atoms: _504  and  _505
REMARK  209  A    between atoms: _508  and  _510
REMARK  210  A    between atoms: _510  and  _511
REMARK  211  A    between atoms: _513  and  _515
REMARK  212  A    between atoms: _515  and  _516
REMARK  213  A    between atoms: _515  and  _518
REMARK  214  A    between atoms: _518  and  _519
REMARK  215  A    between atoms: _519  and  _520
REMARK  216  A    between atoms: _520  and  _521
REMARK  217  A    between atoms: _530  and  _532
REMARK  218  A    between atoms: _532  and  _533
REMARK  219  A    between atoms: _532  and  _535
REMARK  220  A    between atoms: _535  and  _536
REMARK                            x       y       z     vdW  Elec       q    Type
REMARK                         _______ _______ _______ _____ _____    ______ ____
ROOT
ATOM      1  O   HOH     1       4.989 -17.694 -22.603  0.00  0.00    +0.000 OA
ENDROOT
TORSDOF 0
REMARK  Name = ../refined-set-2016/4hdf/4hdf_pocket.pdb
REMARK  220 active torsions:
REMARK  status: ('A' for Active; 'I' for Inactive)
REMARK    1  A    between atoms: _1  and  _3
REMARK    2  A    between atoms: _3  and  _4
REMARK    3  A    between atoms: _3  and  _6
REMARK    4  A    between atoms: _6  and  _7
REMARK    5  A    between atoms: _7  and  _8
REMARK    6  A    between atoms: _8  and  _9
REMARK    7  A    between atoms: _18  and  _20
REMARK    8  A    between atoms: _20  and  _21
REMARK    9  A    between atoms: _20  and  _23
REMARK   10  A    between atoms: _23  and  _24
REMARK   11  A    between atoms: _27  and  _29
REMARK   12  A    between atoms: _29  and  _30
REMARK   13  A    between atoms: _29  and  _32
REMARK   14  A    between atoms: _32  and  _33
REMARK   15  A    between atoms: _36  and  _38
REMARK   16  A    between atoms: _38  and  _39
REMARK   17  A    between atoms: _38  and  _41
REMARK   18  A    between atoms: _41  and  _42
REMARK   19  A    between atoms: _45  and  _47
REMARK   20  A    between atoms: _47  and  _48
REMARK   21  A    between atoms: _47  and  _50
REMARK   22  A    between atoms: _50  and  _51
REMARK   23  A    between atoms: _54  and  _56
REMARK   24  A    between atoms: _56  and  _57
REMARK   25  A    between atoms: _59  and  _61
REMARK   26  A    between atoms: _61  and  _62
REMARK   27  A    between atoms: _65  and  _67
REMARK   28  A    between atoms: _67  and  _68
REMARK   29  A    between atoms: _67  and  _70
REMARK   30  A    between atoms: _70  and  _71
REMARK   31  A    between atoms: _74  and  _76
REMARK   32  A    between atoms: _76  and  _77
REMARK   33  A    between atoms: _76  and  _79
REMARK   34  A    between atoms: _79  and  _80
REMARK   35  A    between atoms: _83  and  _85
REMARK   36  A    between atoms: _85  and  _86
REMARK   37  A    between atoms: _85  and  _88
REMARK   38  A    between atoms: _88  and  _89
REMARK   39  A    between atoms: _92  and  _94
REMARK   40  A    between atoms: _94  and  _95
REMARK   41  A    between atoms: _94  and  _97
REMARK   42  A    between atoms: _100  and  _102
REMARK   43  A    between atoms: _102  and  _103
REMARK   44  A    between atoms: _102  and  _105
REMARK   45  A    between atoms: _105  and  _106
REMARK   46  A    between atoms: _106  and  _107
REMARK   47  A    between atoms: _107  and  _108
REMARK   48  A    between atoms: _108  and  _109
REMARK   49  A    between atoms: _113  and  _115
REMARK   50  A    between atoms: _115  and  _116
REMARK   51  A    between atoms: _115  and  _118
REMARK   52  A    between atoms: _118  and  _119
REMARK   53  A    between atoms: _119  and  _120
REMARK   54  A    between atoms: _122  and  _124
REMARK   55  A    between atoms: _124  and  _125
REMARK   56  A    between atoms: _124  and  _127
REMARK   57  A    between atoms: _127  and  _128
REMARK   58  A    between atoms: _131  and  _133
REMARK   59  A    between atoms: _133  and  _134
REMARK   60  A    between atoms: _136  and  _138
REMARK   61  A    between atoms: _138  and  _139
REMARK   62  A    between atoms: _141  and  _143
REMARK   63  A    between atoms: _143  and  _144
REMARK   64  A    between atoms: _143  and  _146
REMARK   65  A    between atoms: _146  and  _147
REMARK   66  A    between atoms: _150  and  _152
REMARK   67  A    between atoms: _152  and  _153
REMARK   68  A    between atoms: _155  and  _157
REMARK   69  A    between atoms: _157  and  _158
REMARK   70  A    between atoms: _160  and  _162
REMARK   71  A    between atoms: _162  and  _163
REMARK   72  A    between atoms: _162  and  _165
REMARK   73  A    between atoms: _165  and  _166
REMARK   74  A    between atoms: _172  and  _174
REMARK   75  A    between atoms: _174  and  _175
REMARK   76  A    between atoms: _174  and  _177
REMARK   77  A    between atoms: _177  and  _178
REMARK   78  A    between atoms: _181  and  _183
REMARK   79  A    between atoms: _183  and  _184
REMARK   80  A    between atoms: _183  and  _186
REMARK   81  A    between atoms: _186  and  _187
REMARK   82  A    between atoms: _190  and  _192
REMARK   83  A    between atoms: _192  and  _193
REMARK   84  A    between atoms: _192  and  _195
REMARK   85  A    between atoms: _195  and  _196
REMARK   86  A    between atoms: _200  and  _201
REMARK   87  A    between atoms: _206  and  _208
REMARK   88  A    between atoms: _208  and  _209
REMARK   89  A    between atoms: _212  and  _214
REMARK   90  A    between atoms: _214  and  _215
REMARK   91  A    between atoms: _214  and  _217
REMARK   92  A    between atoms: _217  and  _218
REMARK   93  A    between atoms: _223  and  _225
REMARK   94  A    between atoms: _225  and  _226
REMARK   95  A    between atoms: _225  and  _228
REMARK   96  A    between atoms: _228  and  _229
REMARK   97  A    between atoms: _232  and  _234
REMARK   98  A    between atoms: _234  and  _235
REMARK   99  A    between atoms: _237  and  _239
REMARK  100  A    between atoms: _239  and  _240
REMARK  101  A    between atoms: _239  and  _242
REMARK  102  A    between atoms: _242  and  _243
REMARK  103  A    between atoms: _243  and  _244
REMARK  104  A    between atoms: _244  and  _245
REMARK  105  A    between atoms: _254  and  _256
REMARK  106  A    between atoms: _256  and  _257
REMARK  107  A    between atoms: _256  and  _259
REMARK  108  A    between atoms: _259  and  _260
REMARK  109  A    between atoms: _265  and  _267
REMARK  110  A    between atoms: _267  and  _268
REMARK  111  A    between atoms: _267  and  _270
REMARK  112  A    between atoms: _270  and  _271
REMARK  113  A    between atoms: _271  and  _272
REMARK  114  A    between atoms: _272  and  _273
REMARK  115  A    between atoms: _282  and  _284
REMARK  116  A    between atoms: _284  and  _285
REMARK  117  A    between atoms: _284  and  _287
REMARK  118  A    between atoms: _287  and  _288
REMARK  119  A    between atoms: _291  and  _293
REMARK  120  A    between atoms: _293  and  _294
REMARK  121  A    between atoms: _293  and  _296
REMARK  122  A    between atoms: _296  and  _297
REMARK  123  A    between atoms: _300  and  _302
REMARK  124  A    between atoms: _302  and  _303
REMARK  125  A    between atoms: _302  and  _305
REMARK  126  A    between atoms: _305  and  _306
REMARK  127  A    between atoms: _309  and  _311
REMARK  128  A    between atoms: _311  and  _312
REMARK  129  A    between atoms: _311  and  _314
REMARK  130  A    between atoms: _314  and  _315
REMARK  131  A    between atoms: _318  and  _320
REMARK  132  A    between atoms: _320  and  _321
REMARK  133  A    between atoms: _323  and  _325
REMARK  134  A    between atoms: _325  and  _326
REMARK  135  A    between atoms: _329  and  _331
REMARK  136  A    between atoms: _331  and  _332
REMARK  137  A    between atoms: _331  and  _334
REMARK  138  A    between atoms: _334  and  _335
REMARK  139  A    between atoms: _338  and  _340
REMARK  140  A    between atoms: _340  and  _341
REMARK  141  A    between atoms: _340  and  _343
REMARK  142  A    between atoms: _343  and  _344
REMARK  143  A    between atoms: _347  and  _349
REMARK  144  A    between atoms: _349  and  _350
REMARK  145  A    between atoms: _349  and  _352
REMARK  146  A    between atoms: _352  and  _353
REMARK  147  A    between atoms: _356  and  _358
REMARK  148  A    between atoms: _358  and  _359
REMARK  149  A    between atoms: _358  and  _361
REMARK  150  A    between atoms: _364  and  _366
REMARK  151  A    between atoms: _366  and  _367
REMARK  152  A    between atoms: _366  and  _369
REMARK  153  A    between atoms: _369  and  _370
REMARK  154  A    between atoms: _370  and  _371
REMARK  155  A    between atoms: _371  and  _372
REMARK  156  A    between atoms: _372  and  _373
REMARK  157  A    between atoms: _377  and  _379
REMARK  158  A    between atoms: _379  and  _380
REMARK  159  A    between atoms: _379  and  _382
REMARK  160  A    between atoms: _382  and  _383
REMARK  161  A    between atoms: _383  and  _384
REMARK  162  A    between atoms: _386  and  _388
REMARK  163  A    between atoms: _388  and  _389
REMARK  164  A    between atoms: _388  and  _391
REMARK  165  A    between atoms: _391  and  _392
REMARK  166  A    between atoms: _395  and  _397
REMARK  167  A    between atoms: _397  and  _398
REMARK  168  A    between atoms: _400  and  _402
REMARK  169  A    between atoms: _402  and  _403
REMARK  170  A    between atoms: _405  and  _407
REMARK  171  A    between atoms: _407  and  _408
REMARK  172  A    between atoms: _407  and  _410
REMARK  173  A    between atoms: _410  and  _411
REMARK  174  A    between atoms: _414  and  _416
REMARK  175  A    between atoms: _416  and  _417
REMARK  176  A    between atoms: _419  and  _421
REMARK  177  A    between atoms: _421  and  _422
REMARK  178  A    between atoms: _424  and  _426
REMARK  179  A    between atoms: _426  and  _427
REMARK  180  A    between atoms: _426  and  _429
REMARK  181  A    between atoms: _429  and  _430
REMARK  182  A    between atoms: _433  and  _435
REMARK  183  A    between atoms: _435  and  _436
REMARK  184  A    between atoms: _435  and  _438
REMARK  185  A    between atoms: _441  and  _443
REMARK  186  A    between atoms: _443  and  _444
REMARK  187  A    between atoms: _443  and  _446
REMARK  188  A    between atoms: _446  and  _447
REMARK  189  A    between atoms: _451  and  _452
REMARK  190  A    between atoms: _457  and  _459
REMARK  191  A    between atoms: _459  and  _460
REMARK  192  A    between atoms: _459  and  _462
REMARK  193  A    between atoms: _462  and  _463
REMARK  194  A    between atoms: _467  and  _468
REMARK  195  A    between atoms: _473  and  _475
REMARK  196  A    between atoms: _475  and  _476
REMARK  197  A    between atoms: _479  and  _481
REMARK  198  A    between atoms: _481  and  _482
REMARK  199  A    between atoms: _481  and  _484
REMARK  200  A    between atoms: _484  and  _485
REMARK  201  A    between atoms: _490  and  _492
REMARK  202  A    between atoms: _492  and  _493
REMARK  203  A    between atoms: _492  and  _495
REMARK  204  A    between atoms: _495  and  _496
REMARK  205  A    between atoms: _499  and  _501
REMARK  206  A    between atoms: _501  and  _502
REMARK  207  A    between atoms: _501  and  _504
REMARK  208  A    between atoms: _504  and  _505
REMARK  209  A    between atoms: _508  and  _510
REMARK  210  A    between atoms: _510  and  _511
REMARK  211  A    between atoms: _513  and  _515
REMARK  212  A    between atoms: _515  and  _516
REMARK  213  A    between atoms: _515  and  _518
REMARK  214  A    between atoms: _518  and  _519
REMARK  215  A    between atoms: _519  and  _520
REMARK  216  A    between atoms: _520  and  _521
REMARK  217  A    between atoms: _530  and  _532
REMARK  218  A    between atoms: _532  and  _533
REMARK  219  A    between atoms: _532  and  _535
REMARK  220  A    between atoms: _535  and  _536
REMARK                            x       y       z     vdW  Elec       q    Type
REMARK                         _______ _______ _______ _____ _____    ______ ____
ROOT
ATOM      1  O   HOH     1      19.849 -24.093 -12.373  0.00  0.00    +0.000 OA
ENDROOT
TORSDOF 0
REMARK  Name = ../refined-set-2016/4hdf/4hdf_pocket.pdb
REMARK  220 active torsions:
REMARK  status: ('A' for Active; 'I' for Inactive)
REMARK    1  A    between atoms: _1  and  _3
REMARK    2  A    between atoms: _3  and  _4
REMARK    3  A    between atoms: _3  and  _6
REMARK    4  A    between atoms: _6  and  _7
REMARK    5  A    between atoms: _7  and  _8
REMARK    6  A    between atoms: _8  and  _9
REMARK    7  A    between atoms: _18  and  _20
REMARK    8  A    between atoms: _20  and  _21
REMARK    9  A    between atoms: _20  and  _23
REMARK   10  A    between atoms: _23  and  _24
REMARK   11  A    between atoms: _27  and  _29
REMARK   12  A    between atoms: _29  and  _30
REMARK   13  A    between atoms: _29  and  _32
REMARK   14  A    between atoms: _32  and  _33
REMARK   15  A    between atoms: _36  and  _38
REMARK   16  A    between atoms: _38  and  _39
REMARK   17  A    between atoms: _38  and  _41
REMARK   18  A    between atoms: _41  and  _42
REMARK   19  A    between atoms: _45  and  _47
REMARK   20  A    between atoms: _47  and  _48
REMARK   21  A    between atoms: _47  and  _50
REMARK   22  A    between atoms: _50  and  _51
REMARK   23  A    between atoms: _54  and  _56
REMARK   24  A    between atoms: _56  and  _57
REMARK   25  A    between atoms: _59  and  _61
REMARK   26  A    between atoms: _61  and  _62
REMARK   27  A    between atoms: _65  and  _67
REMARK   28  A    between atoms: _67  and  _68
REMARK   29  A    between atoms: _67  and  _70
REMARK   30  A    between atoms: _70  and  _71
REMARK   31  A    between atoms: _74  and  _76
REMARK   32  A    between atoms: _76  and  _77
REMARK   33  A    between atoms: _76  and  _79
REMARK   34  A    between atoms: _79  and  _80
REMARK   35  A    between atoms: _83  and  _85
REMARK   36  A    between atoms: _85  and  _86
REMARK   37  A    between atoms: _85  and  _88
REMARK   38  A    between atoms: _88  and  _89
REMARK   39  A    between atoms: _92  and  _94
REMARK   40  A    between atoms: _94  and  _95
REMARK   41  A    between atoms: _94  and  _97
REMARK   42  A    between atoms: _100  and  _102
REMARK   43  A    between atoms: _102  and  _103
REMARK   44  A    between atoms: _102  and  _105
REMARK   45  A    between atoms: _105  and  _106
REMARK   46  A    between atoms: _106  and  _107
REMARK   47  A    between atoms: _107  and  _108
REMARK   48  A    between atoms: _108  and  _109
REMARK   49  A    between atoms: _113  and  _115
REMARK   50  A    between atoms: _115  and  _116
REMARK   51  A    between atoms: _115  and  _118
REMARK   52  A    between atoms: _118  and  _119
REMARK   53  A    between atoms: _119  and  _120
REMARK   54  A    between atoms: _122  and  _124
REMARK   55  A    between atoms: _124  and  _125
REMARK   56  A    between atoms: _124  and  _127
REMARK   57  A    between atoms: _127  and  _128
REMARK   58  A    between atoms: _131  and  _133
REMARK   59  A    between atoms: _133  and  _134
REMARK   60  A    between atoms: _136  and  _138
REMARK   61  A    between atoms: _138  and  _139
REMARK   62  A    between atoms: _141  and  _143
REMARK   63  A    between atoms: _143  and  _144
REMARK   64  A    between atoms: _143  and  _146
REMARK   65  A    between atoms: _146  and  _147
REMARK   66  A    between atoms: _150  and  _152
REMARK   67  A    between atoms: _152  and  _153
REMARK   68  A    between atoms: _155  and  _157
REMARK   69  A    between atoms: _157  and  _158
REMARK   70  A    between atoms: _160  and  _162
REMARK   71  A    between atoms: _162  and  _163
REMARK   72  A    between atoms: _162  and  _165
REMARK   73  A    between atoms: _165  and  _166
REMARK   74  A    between atoms: _172  and  _174
REMARK   75  A    between atoms: _174  and  _175
REMARK   76  A    between atoms: _174  and  _177
REMARK   77  A    between atoms: _177  and  _178
REMARK   78  A    between atoms: _181  and  _183
REMARK   79  A    between atoms: _183  and  _184
REMARK   80  A    between atoms: _183  and  _186
REMARK   81  A    between atoms: _186  and  _187
REMARK   82  A    between atoms: _190  and  _192
REMARK   83  A    between atoms: _192  and  _193
REMARK   84  A    between atoms: _192  and  _195
REMARK   85  A    between atoms: _195  and  _196
REMARK   86  A    between atoms: _200  and  _201
REMARK   87  A    between atoms: _206  and  _208
REMARK   88  A    between atoms: _208  and  _209
REMARK   89  A    between atoms: _212  and  _214
REMARK   90  A    between atoms: _214  and  _215
REMARK   91  A    between atoms: _214  and  _217
REMARK   92  A    between atoms: _217  and  _218
REMARK   93  A    between atoms: _223  and  _225
REMARK   94  A    between atoms: _225  and  _226
REMARK   95  A    between atoms: _225  and  _228
REMARK   96  A    between atoms: _228  and  _229
REMARK   97  A    between atoms: _232  and  _234
REMARK   98  A    between atoms: _234  and  _235
REMARK   99  A    between atoms: _237  and  _239
REMARK  100  A    between atoms: _239  and  _240
REMARK  101  A    between atoms: _239  and  _242
REMARK  102  A    between atoms: _242  and  _243
REMARK  103  A    between atoms: _243  and  _244
REMARK  104  A    between atoms: _244  and  _245
REMARK  105  A    between atoms: _254  and  _256
REMARK  106  A    between atoms: _256  and  _257
REMARK  107  A    between atoms: _256  and  _259
REMARK  108  A    between atoms: _259  and  _260
REMARK  109  A    between atoms: _265  and  _267
REMARK  110  A    between atoms: _267  and  _268
REMARK  111  A    between atoms: _267  and  _270
REMARK  112  A    between atoms: _270  and  _271
REMARK  113  A    between atoms: _271  and  _272
REMARK  114  A    between atoms: _272  and  _273
REMARK  115  A    between atoms: _282  and  _284
REMARK  116  A    between atoms: _284  and  _285
REMARK  117  A    between atoms: _284  and  _287
REMARK  118  A    between atoms: _287  and  _288
REMARK  119  A    between atoms: _291  and  _293
REMARK  120  A    between atoms: _293  and  _294
REMARK  121  A    between atoms: _293  and  _296
REMARK  122  A    between atoms: _296  and  _297
REMARK  123  A    between atoms: _300  and  _302
REMARK  124  A    between atoms: _302  and  _303
REMARK  125  A    between atoms: _302  and  _305
REMARK  126  A    between atoms: _305  and  _306
REMARK  127  A    between atoms: _309  and  _311
REMARK  128  A    between atoms: _311  and  _312
REMARK  129  A    between atoms: _311  and  _314
REMARK  130  A    between atoms: _314  and  _315
REMARK  131  A    between atoms: _318  and  _320
REMARK  132  A    between atoms: _320  and  _321
REMARK  133  A    between atoms: _323  and  _325
REMARK  134  A    between atoms: _325  and  _326
REMARK  135  A    between atoms: _329  and  _331
REMARK  136  A    between atoms: _331  and  _332
REMARK  137  A    between atoms: _331  and  _334
REMARK  138  A    between atoms: _334  and  _335
REMARK  139  A    between atoms: _338  and  _340
REMARK  140  A    between atoms: _340  and  _341
REMARK  141  A    between atoms: _340  and  _343
REMARK  142  A    between atoms: _343  and  _344
REMARK  143  A    between atoms: _347  and  _349
REMARK  144  A    between atoms: _349  and  _350
REMARK  145  A    between atoms: _349  and  _352
REMARK  146  A    between atoms: _352  and  _353
REMARK  147  A    between atoms: _356  and  _358
REMARK  148  A    between atoms: _358  and  _359
REMARK  149  A    between atoms: _358  and  _361
REMARK  150  A    between atoms: _364  and  _366
REMARK  151  A    between atoms: _366  and  _367
REMARK  152  A    between atoms: _366  and  _369
REMARK  153  A    between atoms: _369  and  _370
REMARK  154  A    between atoms: _370  and  _371
REMARK  155  A    between atoms: _371  and  _372
REMARK  156  A    between atoms: _372  and  _373
REMARK  157  A    between atoms: _377  and  _379
REMARK  158  A    between atoms: _379  and  _380
REMARK  159  A    between atoms: _379  and  _382
REMARK  160  A    between atoms: _382  and  _383
REMARK  161  A    between atoms: _383  and  _384
REMARK  162  A    between atoms: _386  and  _388
REMARK  163  A    between atoms: _388  and  _389
REMARK  164  A    between atoms: _388  and  _391
REMARK  165  A    between atoms: _391  and  _392
REMARK  166  A    between atoms: _395  and  _397
REMARK  167  A    between atoms: _397  and  _398
REMARK  168  A    between atoms: _400  and  _402
REMARK  169  A    between atoms: _402  and  _403
REMARK  170  A    between atoms: _405  and  _407
REMARK  171  A    between atoms: _407  and  _408
REMARK  172  A    between atoms: _407  and  _410
REMARK  173  A    between atoms: _410  and  _411
REMARK  174  A    between atoms: _414  and  _416
REMARK  175  A    between atoms: _416  and  _417
REMARK  176  A    between atoms: _419  and  _421
REMARK  177  A    between atoms: _421  and  _422
REMARK  178  A    between atoms: _424  and  _426
REMARK  179  A    between atoms: _426  and  _427
REMARK  180  A    between atoms: _426  and  _429
REMARK  181  A    between atoms: _429  and  _430
REMARK  182  A    between atoms: _433  and  _435
REMARK  183  A    between atoms: _435  and  _436
REMARK  184  A    between atoms: _435  and  _438
REMARK  185  A    between atoms: _441  and  _443
REMARK  186  A    between atoms: _443  and  _444
REMARK  187  A    between atoms: _443  and  _446
REMARK  188  A    between atoms: _446  and  _447
REMARK  189  A    between atoms: _451  and  _452
REMARK  190  A    between atoms: _457  and  _459
REMARK  191  A    between atoms: _459  and  _460
REMARK  192  A    between atoms: _459  and  _462
REMARK  193  A    between atoms: _462  and  _463
REMARK  194  A    between atoms: _467  and  _468
REMARK  195  A    between atoms: _473  and  _475
REMARK  196  A    between atoms: _475  and  _476
REMARK  197  A    between atoms: _479  and  _481
REMARK  198  A    between atoms: _481  and  _482
REMARK  199  A    between atoms: _481  and  _484
REMARK  200  A    between atoms: _484  and  _485
REMARK  201  A    between atoms: _490  and  _492
REMARK  202  A    between atoms: _492  and  _493
REMARK  203  A    between atoms: _492  and  _495
REMARK  204  A    between atoms: _495  and  _496
REMARK  205  A    between atoms: _499  and  _501
REMARK  206  A    between atoms: _501  and  _502
REMARK  207  A    between atoms: _501  and  _504
REMARK  208  A    between atoms: _504  and  _505
REMARK  209  A    between atoms: _508  and  _510
REMARK  210  A    between atoms: _510  and  _511
REMARK  211  A    between atoms: _513  and  _515
REMARK  212  A    between atoms: _515  and  _516
REMARK  213  A    between atoms: _515  and  _518
REMARK  214  A    between atoms: _518  and  _519
REMARK  215  A    between atoms: _519  and  _520
REMARK  216  A    between atoms: _520  and  _521
REMARK  217  A    between atoms: _530  and  _532
REMARK  218  A    between atoms: _532  and  _533
REMARK  219  A    between atoms: _532  and  _535
REMARK  220  A    between atoms: _535  and  _536
REMARK                            x       y       z     vdW  Elec       q    Type
REMARK                         _______ _______ _______ _____ _____    ______ ____
ROOT
ATOM      1  O   HOH     1       2.437 -15.918 -21.233  0.00  0.00    +0.000 OA
ENDROOT
TORSDOF 0
REMARK  Name = ../refined-set-2016/4hdf/4hdf_pocket.pdb
REMARK  220 active torsions:
REMARK  status: ('A' for Active; 'I' for Inactive)
REMARK    1  A    between atoms: _1  and  _3
REMARK    2  A    between atoms: _3  and  _4
REMARK    3  A    between atoms: _3  and  _6
REMARK    4  A    between atoms: _6  and  _7
REMARK    5  A    between atoms: _7  and  _8
REMARK    6  A    between atoms: _8  and  _9
REMARK    7  A    between atoms: _18  and  _20
REMARK    8  A    between atoms: _20  and  _21
REMARK    9  A    between atoms: _20  and  _23
REMARK   10  A    between atoms: _23  and  _24
REMARK   11  A    between atoms: _27  and  _29
REMARK   12  A    between atoms: _29  and  _30
REMARK   13  A    between atoms: _29  and  _32
REMARK   14  A    between atoms: _32  and  _33
REMARK   15  A    between atoms: _36  and  _38
REMARK   16  A    between atoms: _38  and  _39
REMARK   17  A    between atoms: _38  and  _41
REMARK   18  A    between atoms: _41  and  _42
REMARK   19  A    between atoms: _45  and  _47
REMARK   20  A    between atoms: _47  and  _48
REMARK   21  A    between atoms: _47  and  _50
REMARK   22  A    between atoms: _50  and  _51
REMARK   23  A    between atoms: _54  and  _56
REMARK   24  A    between atoms: _56  and  _57
REMARK   25  A    between atoms: _59  and  _61
REMARK   26  A    between atoms: _61  and  _62
REMARK   27  A    between atoms: _65  and  _67
REMARK   28  A    between atoms: _67  and  _68
REMARK   29  A    between atoms: _67  and  _70
REMARK   30  A    between atoms: _70  and  _71
REMARK   31  A    between atoms: _74  and  _76
REMARK   32  A    between atoms: _76  and  _77
REMARK   33  A    between atoms: _76  and  _79
REMARK   34  A    between atoms: _79  and  _80
REMARK   35  A    between atoms: _83  and  _85
REMARK   36  A    between atoms: _85  and  _86
REMARK   37  A    between atoms: _85  and  _88
REMARK   38  A    between atoms: _88  and  _89
REMARK   39  A    between atoms: _92  and  _94
REMARK   40  A    between atoms: _94  and  _95
REMARK   41  A    between atoms: _94  and  _97
REMARK   42  A    between atoms: _100  and  _102
REMARK   43  A    between atoms: _102  and  _103
REMARK   44  A    between atoms: _102  and  _105
REMARK   45  A    between atoms: _105  and  _106
REMARK   46  A    between atoms: _106  and  _107
REMARK   47  A    between atoms: _107  and  _108
REMARK   48  A    between atoms: _108  and  _109
REMARK   49  A    between atoms: _113  and  _115
REMARK   50  A    between atoms: _115  and  _116
REMARK   51  A    between atoms: _115  and  _118
REMARK   52  A    between atoms: _118  and  _119
REMARK   53  A    between atoms: _119  and  _120
REMARK   54  A    between atoms: _122  and  _124
REMARK   55  A    between atoms: _124  and  _125
REMARK   56  A    between atoms: _124  and  _127
REMARK   57  A    between atoms: _127  and  _128
REMARK   58  A    between atoms: _131  and  _133
REMARK   59  A    between atoms: _133  and  _134
REMARK   60  A    between atoms: _136  and  _138
REMARK   61  A    between atoms: _138  and  _139
REMARK   62  A    between atoms: _141  and  _143
REMARK   63  A    between atoms: _143  and  _144
REMARK   64  A    between atoms: _143  and  _146
REMARK   65  A    between atoms: _146  and  _147
REMARK   66  A    between atoms: _150  and  _152
REMARK   67  A    between atoms: _152  and  _153
REMARK   68  A    between atoms: _155  and  _157
REMARK   69  A    between atoms: _157  and  _158
REMARK   70  A    between atoms: _160  and  _162
REMARK   71  A    between atoms: _162  and  _163
REMARK   72  A    between atoms: _162  and  _165
REMARK   73  A    between atoms: _165  and  _166
REMARK   74  A    between atoms: _172  and  _174
REMARK   75  A    between atoms: _174  and  _175
REMARK   76  A    between atoms: _174  and  _177
REMARK   77  A    between atoms: _177  and  _178
REMARK   78  A    between atoms: _181  and  _183
REMARK   79  A    between atoms: _183  and  _184
REMARK   80  A    between atoms: _183  and  _186
REMARK   81  A    between atoms: _186  and  _187
REMARK   82  A    between atoms: _190  and  _192
REMARK   83  A    between atoms: _192  and  _193
REMARK   84  A    between atoms: _192  and  _195
REMARK   85  A    between atoms: _195  and  _196
REMARK   86  A    between atoms: _200  and  _201
REMARK   87  A    between atoms: _206  and  _208
REMARK   88  A    between atoms: _208  and  _209
REMARK   89  A    between atoms: _212  and  _214
REMARK   90  A    between atoms: _214  and  _215
REMARK   91  A    between atoms: _214  and  _217
REMARK   92  A    between atoms: _217  and  _218
REMARK   93  A    between atoms: _223  and  _225
REMARK   94  A    between atoms: _225  and  _226
REMARK   95  A    between atoms: _225  and  _228
REMARK   96  A    between atoms: _228  and  _229
REMARK   97  A    between atoms: _232  and  _234
REMARK   98  A    between atoms: _234  and  _235
REMARK   99  A    between atoms: _237  and  _239
REMARK  100  A    between atoms: _239  and  _240
REMARK  101  A    between atoms: _239  and  _242
REMARK  102  A    between atoms: _242  and  _243
REMARK  103  A    between atoms: _243  and  _244
REMARK  104  A    between atoms: _244  and  _245
REMARK  105  A    between atoms: _254  and  _256
REMARK  106  A    between atoms: _256  and  _257
REMARK  107  A    between atoms: _256  and  _259
REMARK  108  A    between atoms: _259  and  _260
REMARK  109  A    between atoms: _265  and  _267
REMARK  110  A    between atoms: _267  and  _268
REMARK  111  A    between atoms: _267  and  _270
REMARK  112  A    between atoms: _270  and  _271
REMARK  113  A    between atoms: _271  and  _272
REMARK  114  A    between atoms: _272  and  _273
REMARK  115  A    between atoms: _282  and  _284
REMARK  116  A    between atoms: _284  and  _285
REMARK  117  A    between atoms: _284  and  _287
REMARK  118  A    between atoms: _287  and  _288
REMARK  119  A    between atoms: _291  and  _293
REMARK  120  A    between atoms: _293  and  _294
REMARK  121  A    between atoms: _293  and  _296
REMARK  122  A    between atoms: _296  and  _297
REMARK  123  A    between atoms: _300  and  _302
REMARK  124  A    between atoms: _302  and  _303
REMARK  125  A    between atoms: _302  and  _305
REMARK  126  A    between atoms: _305  and  _306
REMARK  127  A    between atoms: _309  and  _311
REMARK  128  A    between atoms: _311  and  _312
REMARK  129  A    between atoms: _311  and  _314
REMARK  130  A    between atoms: _314  and  _315
REMARK  131  A    between atoms: _318  and  _320
REMARK  132  A    between atoms: _320  and  _321
REMARK  133  A    between atoms: _323  and  _325
REMARK  134  A    between atoms: _325  and  _326
REMARK  135  A    between atoms: _329  and  _331
REMARK  136  A    between atoms: _331  and  _332
REMARK  137  A    between atoms: _331  and  _334
REMARK  138  A    between atoms: _334  and  _335
REMARK  139  A    between atoms: _338  and  _340
REMARK  140  A    between atoms: _340  and  _341
REMARK  141  A    between atoms: _340  and  _343
REMARK  142  A    between atoms: _343  and  _344
REMARK  143  A    between atoms: _347  and  _349
REMARK  144  A    between atoms: _349  and  _350
REMARK  145  A    between atoms: _349  and  _352
REMARK  146  A    between atoms: _352  and  _353
REMARK  147  A    between atoms: _356  and  _358
REMARK  148  A    between atoms: _358  and  _359
REMARK  149  A    between atoms: _358  and  _361
REMARK  150  A    between atoms: _364  and  _366
REMARK  151  A    between atoms: _366  and  _367
REMARK  152  A    between atoms: _366  and  _369
REMARK  153  A    between atoms: _369  and  _370
REMARK  154  A    between atoms: _370  and  _371
REMARK  155  A    between atoms: _371  and  _372
REMARK  156  A    between atoms: _372  and  _373
REMARK  157  A    between atoms: _377  and  _379
REMARK  158  A    between atoms: _379  and  _380
REMARK  159  A    between atoms: _379  and  _382
REMARK  160  A    between atoms: _382  and  _383
REMARK  161  A    between atoms: _383  and  _384
REMARK  162  A    between atoms: _386  and  _388
REMARK  163  A    between atoms: _388  and  _389
REMARK  164  A    between atoms: _388  and  _391
REMARK  165  A    between atoms: _391  and  _392
REMARK  166  A    between atoms: _395  and  _397
REMARK  167  A    between atoms: _397  and  _398
REMARK  168  A    between atoms: _400  and  _402
REMARK  169  A    between atoms: _402  and  _403
REMARK  170  A    between atoms: _405  and  _407
REMARK  171  A    between atoms: _407  and  _408
REMARK  172  A    between atoms: _407  and  _410
REMARK  173  A    between atoms: _410  and  _411
REMARK  174  A    between atoms: _414  and  _416
REMARK  175  A    between atoms: _416  and  _417
REMARK  176  A    between atoms: _419  and  _421
REMARK  177  A    between atoms: _421  and  _422
REMARK  178  A    between atoms: _424  and  _426
REMARK  179  A    between atoms: _426  and  _427
REMARK  180  A    between atoms: _426  and  _429
REMARK  181  A    between atoms: _429  and  _430
REMARK  182  A    between atoms: _433  and  _435
REMARK  183  A    between atoms: _435  and  _436
REMARK  184  A    between atoms: _435  and  _438
REMARK  185  A    between atoms: _441  and  _443
REMARK  186  A    between atoms: _443  and  _444
REMARK  187  A    between atoms: _443  and  _446
REMARK  188  A    between atoms: _446  and  _447
REMARK  189  A    between atoms: _451  and  _452
REMARK  190  A    between atoms: _457  and  _459
REMARK  191  A    between atoms: _459  and  _460
REMARK  192  A    between atoms: _459  and  _462
REMARK  193  A    between atoms: _462  and  _463
REMARK  194  A    between atoms: _467  and  _468
REMARK  195  A    between atoms: _473  and  _475
REMARK  196  A    between atoms: _475  and  _476
REMARK  197  A    between atoms: _479  and  _481
REMARK  198  A    between atoms: _481  and  _482
REMARK  199  A    between atoms: _481  and  _484
REMARK  200  A    between atoms: _484  and  _485
REMARK  201  A    between atoms: _490  and  _492
REMARK  202  A    between atoms: _492  and  _493
REMARK  203  A    between atoms: _492  and  _495
REMARK  204  A    between atoms: _495  and  _496
REMARK  205  A    between atoms: _499  and  _501
REMARK  206  A    between atoms: _501  and  _502
REMARK  207  A    between atoms: _501  and  _504
REMARK  208  A    between atoms: _504  and  _505
REMARK  209  A    between atoms: _508  and  _510
REMARK  210  A    between atoms: _510  and  _511
REMARK  211  A    between atoms: _513  and  _515
REMARK  212  A    between atoms: _515  and  _516
REMARK  213  A    between atoms: _515  and  _518
REMARK  214  A    between atoms: _518  and  _519
REMARK  215  A    between atoms: _519  and  _520
REMARK  216  A    between atoms: _520  and  _521
REMARK  217  A    between atoms: _530  and  _532
REMARK  218  A    between atoms: _532  and  _533
REMARK  219  A    between atoms: _532  and  _535
REMARK  220  A    between atoms: _535  and  _536
REMARK                            x       y       z     vdW  Elec       q    Type
REMARK                         _______ _______ _______ _____ _____    ______ ____
ROOT
ATOM      1  O   HOH     1      18.258 -28.325 -16.673  0.00  0.00    +0.000 OA
ENDROOT
TORSDOF 0
